<?xml version="1.0" encoding="UTF-8"?>

<!-- generated on Thu Nov  7 19:00:26 2019 by Eclipse SUMO duarouter Version 1.2.0
<configuration xmlns:xsi="http://www.w3.org/2001/XMLSchema-instance" xsi:noNamespaceSchemaLocation="http://sumo.dlr.de/xsd/duarouterConfiguration.xsd">

    <input>
        <net-file value="hakata-tenjin.net.xml"/>
        <route-files value="bus_flow_data/bus-test.flows.xml"/>
    </input>

    <output>
        <output-file value="nishitetsu_bus_line.rou.xml"/>
        <alternatives-output value="nishitetsu_bus_line.rou.alt.xml"/>
    </output>

</configuration>
-->

<routes xmlns:xsi="http://www.w3.org/2001/XMLSchema-instance" xsi:noNamespaceSchemaLocation="http://sumo.dlr.de/xsd/routes_file.xsd">
    <vType id="nishitetsu_bus" vClass="bus" color="cyan"/>
    <vehicle id="ekimae4-8_am.0" type="nishitetsu_bus" depart="25200.00">
        <route edges="41118349#4 41118349#5 41118349#6 41118349#7 41118349#8 41118349#9 41118349#10 41118349#11 -221534#0"/>
    </vehicle>
    <vehicle id="ekimaeA-4_am.0" type="nishitetsu_bus" depart="25200.00">
        <route edges="32027234 358569780#0 358569780#1 186154225#0 186154225#1 186154225#2 186154225#4 268408808#0 268408808#1 268408808#2 268408808#3 268408808#4 268408808#5 268408808#6 268408808#9 -45778984#11 -45778984#10 -45778984#9 -45778984#8 -45778984#6 -45778984#4 -45778984#2 -45778984#1 -161950324#1 258878955 -32027132 -32027094#5 -32027094#4 -32027094#2 -32027094#1 -32027093#0 -204408420#4 -204408420#3 -204408420#2 -204408420#1 -204408420#0 -636282885 -258878958#5 -258878958#3 -258878958#2 -258878958#1 -503961113#2 -503961113#1 -503961113#0 -520145812#1 -520145812#0 -208041264#5 -208041264#4 -208041264#3 -208041264#2 -208041264#1 -208041264#0 -503962649#4 -503962649#2"/>
    </vehicle>
    <vehicle id="ekimaeB-1_am.0" type="nishitetsu_bus" depart="25200.00">
        <route edges="32027234 358569780#0 358569780#1 186154225#0 186154225#1 186154225#2 186154225#4 268408808#0 268408808#1 268408808#2 268408808#3 268408808#4 268408808#5 268408808#6 268408808#9 175879333#1 175879333#3 175879333#5 175879333#6 205014968#0 205014968#1 205014968#2 205014970#0 205014970#2 205014970#3 175887275#1 175887275#2 175887275#3 186154251#0 186154251#1 362162012#0 362162012#2 362162012#3 175083056#0 175083056#1"/>
    </vehicle>
    <vehicle id="ekimaeC-1_am.0" type="nishitetsu_bus" depart="25200.00">
        <route edges="186154225#1 186154225#2 186154225#4 40745201#0 40745201#1 40745201#2 40745201#3 40745201#4 40745201#5 40745201#6 40745201#7 194289107#0 194289107#1 194289098#0 194289098#1"/>
    </vehicle>
    <vehicle id="hasuike2_am.0" type="nishitetsu_bus" depart="25200.00">
        <route edges="-47004448 -39528682#3 -39528682#1 -39528682#0 201674695#0 201674695#1 201674695#2 201674695#3 201674695#4 201674695#5 201674695#6 201674695#7 201674695#8 -222264#0 -222264#1 32027234 358569780#0 358569780#1 186154225#0 186154225#1 186154225#2 186154225#4 268408808#0 268408808#1 268408808#2 268408808#3"/>
    </vehicle>
    <vehicle id="hasuike5_am.0" type="nishitetsu_bus" depart="25200.00">
        <route edges="-47004448 -39528682#3 -39528682#1 -39528682#0 201674695#0 201674695#1 201674695#2 201674695#3 201674695#4 201674695#5 201674695#6 201674695#7 201674695#8"/>
    </vehicle>
    <vehicle id="houmu3_am.0" type="nishitetsu_bus" depart="25200.00">
        <route edges="210342326#0 210342326#1 210342326#2 210342326#3 210342327#0 210342327#1 -219765 179084400#1 258878959#0 258878959#1 258878959#2 258878959#3 636282886#1 636282886#2 636282886#3 -46697765 -96533041 -178778538#1 -178778538#0 -28302398#0 43111063#1 43111063#2 46699043 46699042#1 46699042#2 46699042#3 46699042#4 46699042#5 46699042#6 46699042#7 46699042#8 39528682#0 39528682#1 39528682#3 39528682#4"/>
    </vehicle>
    <vehicle id="kuramotoS3_am.0" type="nishitetsu_bus" depart="25200.00">
        <route edges="-223841 304520255#1 -224022#0 -224022#1 298780485 303300911#0 303300911#1 43105234 -175683579#6"/>
    </vehicle>
    <vehicle id="sumiyoshi2_am.0" type="nishitetsu_bus" depart="25200.00">
        <route edges="175879333#5 175879333#6 205014968#0 205014968#1 205014968#2 205014970#0 205014970#2 205014970#3 175887275#1 175887275#2 175887275#3 186154251#0 186154251#1 362162012#0"/>
    </vehicle>
    <vehicle id="sumiyoshi5_am.0" type="nishitetsu_bus" depart="25200.00">
        <route edges="205014971#1 205014971#3 205014971#5 41118349#1 41118349#4"/>
    </vehicle>
    <vehicle id="yuubinkyoku2_am.0" type="nishitetsu_bus" depart="25200.00">
        <route edges="302351410 46696367#2 341760063#1 46696365#0 179084398#1 179084398#2 179084398#3 179084398#4 179084398#5 210342336 43105236#0 43105236#1 43105236#2 43105236#3 -223840#0 -223840#1 -223841 304520255#1 -224022#0 -224022#1 298780485 303300911#0 303300911#1 43105234"/>
    </vehicle>
    <vehicle id="daimyou1_am.0" type="nishitetsu_bus" depart="25260.00">
        <route edges="374632640#3 374632640#4 374632640#5 374632640#6 374632640#7 374632640#8 374632640#9 374632640#10 374632640#12 258878959#0 258878959#1 258878959#2 258878959#3 636282886#1 636282886#2 636282886#3 -46697765 -96533041 -178778538#1 -178778538#0 -28302398#0 43111063#1 43111063#2 46699043 46699042#1 46699042#2 46699042#3 46699042#4 46699042#5 46699042#6 46699042#7 46699042#8 39528682#0 39528682#1 39528682#3 39528682#4"/>
    </vehicle>
    <vehicle id="ekimae4-1_am.0" type="nishitetsu_bus" depart="25260.00">
        <route edges="41118349#4 41118349#5 41118349#6 41118349#7 41118349#8 41118349#9 41118349#10 41118349#11 -221534#0 -221534#2 210507356#0 210507356#0.44 169673064#0 169673064#1 169673064#2 169673064#3 169673064#4 169673064#5 169673064#6 169673064#7 169673064#8 169673064#9 169673064#10 201674706#0 201674706#1 201674706#2 186154255#0 186154255#1 186154255#2 186154255#3 186154255#4 186154255#5 201674727#1 169673056#1 169673056#2"/>
    </vehicle>
    <vehicle id="ekimae4-2_am.0" type="nishitetsu_bus" depart="25260.00">
        <route edges="41118349#4 41118349#5 41118349#6 41118349#7 41118349#8 41118349#9 41118349#10 41118349#11 -221534#0 -221534#2 210507356#0 210507356#0.44 179129062#1"/>
    </vehicle>
    <vehicle id="ekimaeA-1_am.0" type="nishitetsu_bus" depart="25260.00">
        <route edges="32027234 358569780#0 358569780#1 186154225#0 186154225#1 186154225#2 186154225#4 268408808#0 268408808#1 268408808#2 268408808#3 268408808#4 268408808#5 268408808#6 268408808#9 175879333#1 175879333#3 175879333#5 175879333#6 205014968#0 205014968#1 205014968#2 205014970#0 205014970#2 205014970#3 175887275#1 175887275#2 175887275#3 186154251#0 186154251#1 169516525 362162013#1 362162013#2 362162013#3 362162013#4 362162013#5 362162013#6 217421748#0 217421750#0 217421750#1 217421750#2 32008537#1 32008537#2 32008537#4 32008537#5 32008537#8 32008537#10 366459037#2 42762533#0 179084399#0 179084399#1"/>
    </vehicle>
    <vehicle id="ekimaeA-3_am.0" type="nishitetsu_bus" depart="25260.00">
        <route edges="32027234 358569780#0 358569780#1 186154225#0 186154225#1 186154225#2 186154225#4 268408808#0 268408808#1 268408808#2 268408808#3 268408808#4 268408808#5 268408808#6"/>
    </vehicle>
    <vehicle id="hasuike8_am.0" type="nishitetsu_bus" depart="25260.00">
        <route edges="-47004448 -39528682#3 -39528682#1 -39528682#0 201674695#0 201674695#1 201674695#2 201674695#3 175150505#1 175150505#2 45761335#0 45761335#1 45761335#2 45761335#3 -32027132 -32027094#5 -32027094#4 -32027094#2 -32027094#1 -32027093#0 -204408420#4 -204408420#3 -204408420#2 -46679219#6 -46679219#5 -46679219#4 -46679219#3 -46679219#2 -46679219#1 33111382 46697765 -636282886#3 -636282886#2 -636282886#1 -258878959#3 -258878959#2 -258878959#1 -258878959#0"/>
    </vehicle>
    <vehicle id="kego1_am.0" type="nishitetsu_bus" depart="25260.00">
        <route edges="-503962649#2 -503962649#1"/>
    </vehicle>
    <vehicle id="yuubinkyoku4_am.0" type="nishitetsu_bus" depart="25260.00">
        <route edges="302351410 46696367#2 341760063#1 46696365#0 179084398#1 179084398#2 179084398#3 179084398#4 179084398#5 210342336 43105236#0 43105236#1 43105236#2 43105236#3 -223840#0 -223840#1 -223841 304520255#1 -224022#0 -224022#1 298780485 303300911#0 303300911#1 43105234 -175683579#6"/>
    </vehicle>
    <vehicle id="ekimae4-8_am.1" type="nishitetsu_bus" depart="25276.60">
        <route edges="41118349#4 41118349#5 41118349#6 41118349#7 41118349#8 41118349#9 41118349#10 41118349#11 -221534#0"/>
    </vehicle>
    <vehicle id="ekimaeB-1_am.1" type="nishitetsu_bus" depart="25288.89">
        <route edges="32027234 358569780#0 358569780#1 186154225#0 186154225#1 186154225#2 186154225#4 268408808#0 268408808#1 268408808#2 268408808#3 268408808#4 268408808#5 268408808#6 268408808#9 175879333#1 175879333#3 175879333#5 175879333#6 205014968#0 205014968#1 205014968#2 205014970#0 205014970#2 205014970#3 175887275#1 175887275#2 175887275#3 186154251#0 186154251#1 362162012#0 362162012#2 362162012#3 175083056#0 175083056#1"/>
    </vehicle>
    <vehicle id="sumiyoshi2_am.1" type="nishitetsu_bus" depart="25297.30">
        <route edges="175879333#5 175879333#6 205014968#0 205014968#1 205014968#2 205014970#0 205014970#2 205014970#3 175887275#1 175887275#2 175887275#3 186154251#0 186154251#1 362162012#0"/>
    </vehicle>
    <vehicle id="yuubinkyoku2_am.1" type="nishitetsu_bus" depart="25314.28">
        <route edges="302351410 46696367#2 341760063#1 46696365#0 179084398#1 179084398#2 179084398#3 179084398#4 179084398#5 210342336 43105236#0 43105236#1 43105236#2 43105236#3 -223840#0 -223840#1 -223841 304520255#1 -224022#0 -224022#1 298780485 303300911#0 303300911#1 43105234"/>
    </vehicle>
    <vehicle id="ekimae4-7_am.0" type="nishitetsu_bus" depart="25320.00">
        <route edges="41118349#4 41118349#5 41118349#6 41118349#7 41118349#8 41118349#9 41118349#10 41118349#11 -221534#0 -221534#2 210507356#0"/>
    </vehicle>
    <vehicle id="hakataBT-4_am.0" type="nishitetsu_bus" depart="25320.00">
        <route edges="178150954#2 169673064#0 169673064#1 169673064#2 169673064#3 169673064#4 169673064#5 169673064#6 169673064#7 169673064#8 169673064#9 169673064#10 -46699042#8 -46699042#7 -46699042#6 -46699042#5 -46699042#4 -46699042#3 -46699042#2 -46699042#1 -46699042#0 -43111063#2 -43111063#1 28302398#0 28302398#2 178778538#1 33111382 46697765 -636282886#3 -636282886#2 -636282886#1 -258878959#3 -258878959#2 -258878959#1 -258878959#0 -374632640#12 -374632640#10 -374632640#9 -374632640#8 -374632640#7 -374632640#6 -374632640#5 -374632640#4 -374632640#3"/>
    </vehicle>
    <vehicle id="ishidou1_am.0" type="nishitetsu_bus" depart="25320.00">
        <route edges="175683579#6 186983033 175772361#1 303310263 -224049 304520257#1 304520257#2 304520257#3 304520257#4 304520257#5 210342331 174921870#0 174921870#1 174921870#2 174921870#3 174921838#1 174921908#2 174921908#3 174921908#4 341760062#1 -219773 210342328#0"/>
    </vehicle>
    <vehicle id="sekijyou4_am.0" type="nishitetsu_bus" depart="25320.00">
        <route edges="-40745158#1 -40745158#0 42762530#0 42762530#1 42762530#2 42762530#3 42762530#4 42762530#5 44889592#0 44889592#1 44889592#2 44889592#4 44889592#6 44889592#7 44889592#8 44889592#9 44889592#10 44889592#11 179084434#1 179084434#2 179084434#3 179084434#5 179084434#6 175081037#0 175081037#1"/>
    </vehicle>
    <vehicle id="tenjinkita5_am.0" type="nishitetsu_bus" depart="25320.00">
        <route edges="175081037#1 179084400#1 258878956#0 258878956#3 258878956#5 258878956#8 -503961113#2 -503961113#1 -503961113#0 -520145812#1 -520145812#0 -208041264#5 -208041264#4 -208041264#3 -208041264#2 -208041264#1 -208041264#0 -503962649#4 -503962649#2"/>
    </vehicle>
    <vehicle id="ekimae4-8_am.2" type="nishitetsu_bus" depart="25353.19">
        <route edges="41118349#4 41118349#5 41118349#6 41118349#7 41118349#8 41118349#9 41118349#10 41118349#11 -221534#0"/>
    </vehicle>
    <vehicle id="ekimaeB-1_am.2" type="nishitetsu_bus" depart="25377.78">
        <route edges="32027234 358569780#0 358569780#1 186154225#0 186154225#1 186154225#2 186154225#4 268408808#0 268408808#1 268408808#2 268408808#3 268408808#4 268408808#5 268408808#6 268408808#9 175879333#1 175879333#3 175879333#5 175879333#6 205014968#0 205014968#1 205014968#2 205014970#0 205014970#2 205014970#3 175887275#1 175887275#2 175887275#3 186154251#0 186154251#1 362162012#0 362162012#2 362162012#3 175083056#0 175083056#1"/>
    </vehicle>
    <vehicle id="hasuike7_am.0" type="nishitetsu_bus" depart="25380.00">
        <route edges="-47004448 -39528682#3 -39528682#1 -39528682#0 201674706#0 201674706#1 201674706#2 304520257#1 304520257#2 304520257#3 304520257#4 304520257#5 210342331 174921870#0 174921870#1 174921870#2 174921870#3 174921838#1 174921908#2 174921908#3 174921908#4 341760062#1"/>
    </vehicle>
    <vehicle id="kego5_am.0" type="nishitetsu_bus" depart="25380.00">
        <route edges="503962649#2 503962649#4 208041264#0 208041264#1 208041264#2 208041264#3 208041264#4 208041264#5 520145812#0 520145812#1 503961113#0 503961113#1 503961113#2 207916357#2 207916357#3 315455103#1 169516526#3 -56131478#2 -56131478#1 -258878958#3 -258878958#2 -258878958#1 -503961113#2 -503961113#1 503961111 96534727#3 96534727#4 217421750#2 258878958#1 258878958#2 258878958#3 258878958#5 636282885 498810734 204408420#1 204408420#2 204408420#3 204408420#4 204408420#6 32027094#1 32027094#2 32027094#4 32027094#5 32027132 -45761335#3 -45761335#2 -45761335#1 -45761335#0 -175150505#2 -175150505#1 201674695#4 201674695#5 201674695#6 201674695#7 201674695#8 -222264#0 -222264#1"/>
    </vehicle>
    <vehicle id="sumiyoshi3_am.0" type="nishitetsu_bus" depart="25380.00">
        <route edges="205014971#1 205014971#3 205014971#5 41118349#1 41118349#4 41118349#5 41118349#6 41118349#7 41118349#8 41118349#9 41118349#10 41118349#11 -221534#0 -221534#2 210507356#0 210507356#0.44 169673064#0 169673064#1 169673064#2 169673064#3 169673064#4 169673064#5 169673064#6 169673064#7 169673064#8 169673064#9 169673064#10 39528682#0 39528682#1 39528682#3 39528682#4"/>
    </vehicle>
    <vehicle id="yakuin1_am.0" type="nishitetsu_bus" depart="25380.00">
        <route edges="-175083056#1 -175083056#0 -362162012#3 -362162012#2 -362162012#0 169516525 362162013#1 362162013#2 362162013#3 362162013#4 362162013#5 362162013#6 217421748#0 217421750#0 217421750#1 217421750#2 32008537#1 32008537#2 32008537#4 32008537#5 32008537#8 32008537#10 366459037#2 258878959#0 258878959#1 258878959#2 258878959#3 636282886#1 636282886#2 636282886#3 -46697765 -96533041 -178778538#1 -178778538#0 -28302398#0 43111063#1 43111063#2 46699043 46699042#1 46699042#2 46699042#3 46699042#4 46699042#5 46699042#6 46699042#7 46699042#8 39528682#0 39528682#1 39528682#3 39528682#4 43105230#0"/>
    </vehicle>
    <vehicle id="yuubinkyoku1_am.0" type="nishitetsu_bus" depart="25380.00">
        <route edges="341760062#1 -219773 210342328#0 210342328#1 210342325#0 210342325#1 210342325#2 210342325#3"/>
    </vehicle>
    <vehicle id="yuubinkyoku3_am.0" type="nishitetsu_bus" depart="25380.00">
        <route edges="302351410 46696367#2 341760063#1 46696365#0 179084398#1 179084398#2 179084398#3 179084398#4 179084398#5 210342336 43105236#0 43105236#1 43105236#2 43105236#3 -223840#0 -223840#1 -223841 186154255#0 186154255#1 186154255#2 186154255#3 186154255#4 186154255#5 40745158#0 40745158#1"/>
    </vehicle>
    <vehicle id="daimyou1_am.1" type="nishitetsu_bus" depart="25385.26">
        <route edges="374632640#3 374632640#4 374632640#5 374632640#6 374632640#7 374632640#8 374632640#9 374632640#10 374632640#12 258878959#0 258878959#1 258878959#2 258878959#3 636282886#1 636282886#2 636282886#3 -46697765 -96533041 -178778538#1 -178778538#0 -28302398#0 43111063#1 43111063#2 46699043 46699042#1 46699042#2 46699042#3 46699042#4 46699042#5 46699042#6 46699042#7 46699042#8 39528682#0 39528682#1 39528682#3 39528682#4"/>
    </vehicle>
    <vehicle id="sumiyoshi2_am.2" type="nishitetsu_bus" depart="25394.59">
        <route edges="175879333#5 175879333#6 205014968#0 205014968#1 205014968#2 205014970#0 205014970#2 205014970#3 175887275#1 175887275#2 175887275#3 186154251#0 186154251#1 362162012#0"/>
    </vehicle>
    <vehicle id="kego1_am.1" type="nishitetsu_bus" depart="25405.71">
        <route edges="-503962649#2 -503962649#1"/>
    </vehicle>
    <vehicle id="yuubinkyoku2_am.2" type="nishitetsu_bus" depart="25428.57">
        <route edges="302351410 46696367#2 341760063#1 46696365#0 179084398#1 179084398#2 179084398#3 179084398#4 179084398#5 210342336 43105236#0 43105236#1 43105236#2 43105236#3 -223840#0 -223840#1 -223841 304520255#1 -224022#0 -224022#1 298780485 303300911#0 303300911#1 43105234"/>
    </vehicle>
    <vehicle id="ekimae4-8_am.3" type="nishitetsu_bus" depart="25429.78">
        <route edges="41118349#4 41118349#5 41118349#6 41118349#7 41118349#8 41118349#9 41118349#10 41118349#11 -221534#0"/>
    </vehicle>
    <vehicle id="ekimaeA-3_am.1" type="nishitetsu_bus" depart="25430.00">
        <route edges="32027234 358569780#0 358569780#1 186154225#0 186154225#1 186154225#2 186154225#4 268408808#0 268408808#1 268408808#2 268408808#3 268408808#4 268408808#5 268408808#6"/>
    </vehicle>
    <vehicle id="daimyou2_am.0" type="nishitetsu_bus" depart="25440.00">
        <route edges="374632640#3 374632640#4 374632640#5 374632640#6 374632640#7 374632640#8 374632640#9 374632640#10 374632640#12 258878959#0 258878959#1 258878959#2 258878959#3 636282886#1 636282886#2 636282886#3 -46697765 -96533041 -178778538#1 -178778538#0 -28302398#0 43111063#1 43111063#2 46699043 46699042#1 46699042#2 46699042#3 46699042#4 46699042#5 46699042#6 46699042#7 46699042#8 201674695#0 201674695#1 201674695#2 201674695#3 201674695#4 201674695#5 201674695#6 201674695#7 201674695#8"/>
    </vehicle>
    <vehicle id="ekimaeC-2_am.0" type="nishitetsu_bus" depart="25440.00">
        <route edges="186154225#1 186154225#2 186154225#4 40745201#0 40745201#1 40745201#2 40745201#3 40745201#4 40745201#5 40745201#6 40745201#7 -40273647#9 -40273647#8 -40273647#7 -40273647#6 -40273647#5 -40273647#4 -40273647#3 -40273647#2 -40273647#1"/>
    </vehicle>
    <vehicle id="kuramotoS2_am.0" type="nishitetsu_bus" depart="25440.00">
        <route edges="304520257#1 304520257#2 304520257#3 304520257#4 304520257#5 210342331 174921870#0 174921870#1 174921870#2 174921870#3 174921838#1 174921908#2 174921908#3 174921908#4 341760062#1"/>
    </vehicle>
    <vehicle id="sumiyoshi10_am.0" type="nishitetsu_bus" depart="25440.00">
        <route edges="205014971#1 205014971#3 205014971#5 41118349#1 41118349#4 41118349#5 41118349#6 41118349#7 41118349#8 41118349#9"/>
    </vehicle>
    <vehicle id="takasago1_am.0" type="nishitetsu_bus" depart="25440.00">
        <route edges="40745176#29 40745176#30 40745176#31 -220469#0 -220469#1 -220469#2 169516525 362162013#1 362162013#2 362162013#3 362162013#4 362162013#5 362162013#6 217421748#0 217421750#0 217421750#1 217421750#2 32008537#1 32008537#2 32008537#4 32008537#5 32008537#8 32008537#10 366459037#2 42762533#0 179084399#0 179084399#1 454480289#0 454480289#1 179084432#0"/>
    </vehicle>
    <vehicle id="ekimaeB-1_am.3" type="nishitetsu_bus" depart="25466.66">
        <route edges="32027234 358569780#0 358569780#1 186154225#0 186154225#1 186154225#2 186154225#4 268408808#0 268408808#1 268408808#2 268408808#3 268408808#4 268408808#5 268408808#6 268408808#9 175879333#1 175879333#3 175879333#5 175879333#6 205014968#0 205014968#1 205014968#2 205014970#0 205014970#2 205014970#3 175887275#1 175887275#2 175887275#3 186154251#0 186154251#1 362162012#0 362162012#2 362162012#3 175083056#0 175083056#1"/>
    </vehicle>
    <vehicle id="sumiyoshi2_am.3" type="nishitetsu_bus" depart="25491.89">
        <route edges="175879333#5 175879333#6 205014968#0 205014968#1 205014968#2 205014970#0 205014970#2 205014970#3 175887275#1 175887275#2 175887275#3 186154251#0 186154251#1 362162012#0"/>
    </vehicle>
    <vehicle id="yuubinkyoku1_am.1" type="nishitetsu_bus" depart="25495.08">
        <route edges="341760062#1 -219773 210342328#0 210342328#1 210342325#0 210342325#1 210342325#2 210342325#3"/>
    </vehicle>
    <vehicle id="ekimae4-4_am.0" type="nishitetsu_bus" depart="25500.00">
        <route edges="41118349#4 41118349#5 41118349#6 41118349#7 41118349#8 41118349#9 41118349#10 41118349#11 -221534#0 -221534#2 210507356#0 210507356#0.44 169673064#0 169673064#1 169673064#2 169673064#3 169673064#4 169673064#5 169673064#6 169673064#7 169673064#8 169673064#9 169673064#10 39528682#0"/>
    </vehicle>
    <vehicle id="ekimaeC-1_am.1" type="nishitetsu_bus" depart="25500.00">
        <route edges="186154225#1 186154225#2 186154225#4 40745201#0 40745201#1 40745201#2 40745201#3 40745201#4 40745201#5 40745201#6 40745201#7 194289107#0 194289107#1 194289098#0 194289098#1"/>
    </vehicle>
    <vehicle id="hasuike9_am.0" type="nishitetsu_bus" depart="25500.00">
        <route edges="-47004448 -39528682#3 -39528682#1 -39528682#0 -46699042#8 -46699042#7 -46699042#6 -46699042#5 -46699042#4 -46699042#3 -46699042#2 -46699042#1 -46699042#0 -43111063#2 -43111063#1 28302398#0 28302398#2 178778538#1 33111382 46697765 -636282886#3 -636282886#2 -636282886#1 -258878959#3 -258878959#2 -258878959#1 -258878959#0 258878956#0 258878956#3 258878956#5 258878956#8 207916357#2 207916357#3 207916357#4 207916357#5 217421751#1 217421751#2 217421751#3 217421751#4 217421751#5 217421751#6 217421751#7 217421751#8 206789952#0 206789952#1 206789952#2 206789952#3"/>
    </vehicle>
    <vehicle id="kuramotoS1_am.0" type="nishitetsu_bus" depart="25500.00">
        <route edges="304520257#1 304520257#2 304520257#3 304520257#4 304520257#5 210342331 174921870#0 174921870#1 174921870#2 174921870#3 174921838#1 174921908#2 174921908#3 174921908#4 341760062#1 -219773 210342328#0"/>
    </vehicle>
    <vehicle id="sumiyoshi5_am.1" type="nishitetsu_bus" depart="25500.00">
        <route edges="205014971#1 205014971#3 205014971#5 41118349#1 41118349#4"/>
    </vehicle>
    <vehicle id="sumiyoshi6_am.0" type="nishitetsu_bus" depart="25500.00">
        <route edges="175879333#5 175879333#6 205014968#0 205014968#1 205014968#2 205014970#0 205014970#2 205014970#3 175887275#1 175887275#2 175887275#3 186154251#0 186154251#1 169516525 362162013#1 362162013#2 362162013#3 362162013#4 362162013#5 362162013#6 217421748#0 217421750#0 217421750#1 217421750#2 32008537#1 32008537#2 32008537#4 32008537#5 32008537#8 32008537#10 366459037#2 42762533#0 179084399#0 179084399#1 454480289#0 454480289#1 179084432#0"/>
    </vehicle>
    <vehicle id="ekimae4-8_am.4" type="nishitetsu_bus" depart="25506.38">
        <route edges="41118349#4 41118349#5 41118349#6 41118349#7 41118349#8 41118349#9 41118349#10 41118349#11 -221534#0"/>
    </vehicle>
    <vehicle id="daimyou1_am.2" type="nishitetsu_bus" depart="25510.53">
        <route edges="374632640#3 374632640#4 374632640#5 374632640#6 374632640#7 374632640#8 374632640#9 374632640#10 374632640#12 258878959#0 258878959#1 258878959#2 258878959#3 636282886#1 636282886#2 636282886#3 -46697765 -96533041 -178778538#1 -178778538#0 -28302398#0 43111063#1 43111063#2 46699043 46699042#1 46699042#2 46699042#3 46699042#4 46699042#5 46699042#6 46699042#7 46699042#8 39528682#0 39528682#1 39528682#3 39528682#4"/>
    </vehicle>
    <vehicle id="sumiyoshi10_am.1" type="nishitetsu_bus" depart="25522.86">
        <route edges="205014971#1 205014971#3 205014971#5 41118349#1 41118349#4 41118349#5 41118349#6 41118349#7 41118349#8 41118349#9"/>
    </vehicle>
    <vehicle id="hakataBT-4_am.1" type="nishitetsu_bus" depart="25528.24">
        <route edges="178150954#2 169673064#0 169673064#1 169673064#2 169673064#3 169673064#4 169673064#5 169673064#6 169673064#7 169673064#8 169673064#9 169673064#10 -46699042#8 -46699042#7 -46699042#6 -46699042#5 -46699042#4 -46699042#3 -46699042#2 -46699042#1 -46699042#0 -43111063#2 -43111063#1 28302398#0 28302398#2 178778538#1 33111382 46697765 -636282886#3 -636282886#2 -636282886#1 -258878959#3 -258878959#2 -258878959#1 -258878959#0 -374632640#12 -374632640#10 -374632640#9 -374632640#8 -374632640#7 -374632640#6 -374632640#5 -374632640#4 -374632640#3"/>
    </vehicle>
    <vehicle id="yuubinkyoku2_am.3" type="nishitetsu_bus" depart="25542.85">
        <route edges="302351410 46696367#2 341760063#1 46696365#0 179084398#1 179084398#2 179084398#3 179084398#4 179084398#5 210342336 43105236#0 43105236#1 43105236#2 43105236#3 -223840#0 -223840#1 -223841 304520255#1 -224022#0 -224022#1 298780485 303300911#0 303300911#1 43105234"/>
    </vehicle>
    <vehicle id="kego1_am.2" type="nishitetsu_bus" depart="25551.43">
        <route edges="-503962649#2 -503962649#1"/>
    </vehicle>
    <vehicle id="ekimaeB-1_am.4" type="nishitetsu_bus" depart="25555.55">
        <route edges="32027234 358569780#0 358569780#1 186154225#0 186154225#1 186154225#2 186154225#4 268408808#0 268408808#1 268408808#2 268408808#3 268408808#4 268408808#5 268408808#6 268408808#9 175879333#1 175879333#3 175879333#5 175879333#6 205014968#0 205014968#1 205014968#2 205014970#0 205014970#2 205014970#3 175887275#1 175887275#2 175887275#3 186154251#0 186154251#1 362162012#0 362162012#2 362162012#3 175083056#0 175083056#1"/>
    </vehicle>
    <vehicle id="sumiyoshi1_am.0" type="nishitetsu_bus" depart="25560.00">
        <route edges="205014971#1 205014971#3 205014971#5 41118349#1 41118349#4 41118349#5 41118349#6 41118349#7 41118349#8 41118349#9 41118349#10 41118349#11 -221534#0 -221534#2 210507356#0 210507356#0.44 169673064#0 169673064#1 169673064#2 169673064#3 169673064#4 169673064#5 169673064#6 169673064#7 169673064#8 169673064#9 169673064#10 201674706#0 201674706#1 201674706#2 186154255#0 186154255#1 186154255#2 186154255#3 186154255#4 186154255#5 201674727#1 169673058#0"/>
    </vehicle>
    <vehicle id="tenjinkita4_am.0" type="nishitetsu_bus" depart="25560.00">
        <route edges="175081037#1 179084400#1 258878956#0 258878956#3 258878956#5 258878956#8 -503961113#2 -503961113#1 -503961113#0 -520145812#1 -520145812#0 -208041264#5 -208041264#4 -208041264#3 -208041264#2 -208041264#1 -208041264#0 -503962649#4 -503962649#2 -503962649#1"/>
    </vehicle>
    <vehicle id="tenjinkita6_am.0" type="nishitetsu_bus" depart="25560.00">
        <route edges="175081037#1 179084400#1 258878956#0 258878956#3 258878956#5 258878956#8 207916357#2 207916357#3 207916357#4 207916357#5 217421751#1 217421751#2 217421751#3 217421751#4 217421751#5 217421751#6 217421751#7 217421751#8 206789952#0 206789952#1 206789952#2 206789952#3"/>
    </vehicle>
    <vehicle id="ekimae4-1_am.1" type="nishitetsu_bus" depart="25570.43">
        <route edges="41118349#4 41118349#5 41118349#6 41118349#7 41118349#8 41118349#9 41118349#10 41118349#11 -221534#0 -221534#2 210507356#0 210507356#0.44 169673064#0 169673064#1 169673064#2 169673064#3 169673064#4 169673064#5 169673064#6 169673064#7 169673064#8 169673064#9 169673064#10 201674706#0 201674706#1 201674706#2 186154255#0 186154255#1 186154255#2 186154255#3 186154255#4 186154255#5 201674727#1 169673056#1 169673056#2"/>
    </vehicle>
    <vehicle id="ekimae4-8_am.5" type="nishitetsu_bus" depart="25582.97">
        <route edges="41118349#4 41118349#5 41118349#6 41118349#7 41118349#8 41118349#9 41118349#10 41118349#11 -221534#0"/>
    </vehicle>
    <vehicle id="sumiyoshi2_am.4" type="nishitetsu_bus" depart="25589.19">
        <route edges="175879333#5 175879333#6 205014968#0 205014968#1 205014968#2 205014970#0 205014970#2 205014970#3 175887275#1 175887275#2 175887275#3 186154251#0 186154251#1 362162012#0"/>
    </vehicle>
    <vehicle id="daimyou2_am.1" type="nishitetsu_bus" depart="25594.67">
        <route edges="374632640#3 374632640#4 374632640#5 374632640#6 374632640#7 374632640#8 374632640#9 374632640#10 374632640#12 258878959#0 258878959#1 258878959#2 258878959#3 636282886#1 636282886#2 636282886#3 -46697765 -96533041 -178778538#1 -178778538#0 -28302398#0 43111063#1 43111063#2 46699043 46699042#1 46699042#2 46699042#3 46699042#4 46699042#5 46699042#6 46699042#7 46699042#8 201674695#0 201674695#1 201674695#2 201674695#3 201674695#4 201674695#5 201674695#6 201674695#7 201674695#8"/>
    </vehicle>
    <vehicle id="ekimaeA-3_am.2" type="nishitetsu_bus" depart="25600.00">
        <route edges="32027234 358569780#0 358569780#1 186154225#0 186154225#1 186154225#2 186154225#4 268408808#0 268408808#1 268408808#2 268408808#3 268408808#4 268408808#5 268408808#6"/>
    </vehicle>
    <vehicle id="sumiyoshi10_am.2" type="nishitetsu_bus" depart="25605.71">
        <route edges="205014971#1 205014971#3 205014971#5 41118349#1 41118349#4 41118349#5 41118349#6 41118349#7 41118349#8 41118349#9"/>
    </vehicle>
    <vehicle id="yuubinkyoku1_am.2" type="nishitetsu_bus" depart="25610.16">
        <route edges="341760062#1 -219773 210342328#0 210342328#1 210342325#0 210342325#1 210342325#2 210342325#3"/>
    </vehicle>
    <vehicle id="ekimae4-7_am.1" type="nishitetsu_bus" depart="25615.00">
        <route edges="41118349#4 41118349#5 41118349#6 41118349#7 41118349#8 41118349#9 41118349#10 41118349#11 -221534#0 -221534#2 210507356#0"/>
    </vehicle>
    <vehicle id="yuubinkyoku4_am.1" type="nishitetsu_bus" depart="25617.00">
        <route edges="302351410 46696367#2 341760063#1 46696365#0 179084398#1 179084398#2 179084398#3 179084398#4 179084398#5 210342336 43105236#0 43105236#1 43105236#2 43105236#3 -223840#0 -223840#1 -223841 304520255#1 -224022#0 -224022#1 298780485 303300911#0 303300911#1 43105234 -175683579#6"/>
    </vehicle>
    <vehicle id="kuramotoS2_am.1" type="nishitetsu_bus" depart="25618.46">
        <route edges="304520257#1 304520257#2 304520257#3 304520257#4 304520257#5 210342331 174921870#0 174921870#1 174921870#2 174921870#3 174921838#1 174921908#2 174921908#3 174921908#4 341760062#1"/>
    </vehicle>
    <vehicle id="hakataBT-6_am.0" type="nishitetsu_bus" depart="25620.00">