<?xml version="1.0" encoding="UTF-8"?>

<!-- generated on Fri Jan 20 16:43:30 2017 by SUMO duarouter Version 0.27.1
<?xml version="1.0" encoding="UTF-8"?>

<configuration xmlns:xsi="http://www.w3.org/2001/XMLSchema-instance" xsi:noNamespaceSchemaLocation="http://sumo.dlr.de/xsd/duarouterConfiguration.xsd">

    <input>
        <net-file value="osm.net.xml"/>
        <trip-files value="osm.passenger.trips.xml"/>
    </input>

    <output>
        <output-file value="osm.passenger.rou.xml"/>
    </output>

    <processing>
        <ignore-errors value="true"/>
    </processing>

    <time>
        <begin value="0"/>
        <end value="3600.0"/>
    </time>

    <report>
        <no-warnings value="true"/>
        <no-step-log value="true"/>
    </report>

</configuration>
-->

<routes xmlns:xsi="http://www.w3.org/2001/XMLSchema-instance" xsi:noNamespaceSchemaLocation="http://sumo.dlr.de/xsd/routes_file.xsd">
    <vType id="passenger" vClass="passenger"/>
    <vehicle id="veh0" type="passenger" depart="0.00" departLane="best">
        <route edges="164887582#8 164887582#9 164887582#10 67214798#4 67214798#5 67214798#6 67214798#7 67214798#8 67214798#9 67214798#10 67214798#11 67214798#12 67214798#14 67214798#15 67214798#16 67214798#17 67214798#18 67214798#19 67214798#20 67214837#1 67214837#2 67214837#3 191353121 67209976#0 67209971#6 67209971#7 -163508463#4 -163508463#3 -163508437#1 -163508437#0 -163508443#2"/>
    </vehicle>
    <vehicle id="veh1" type="passenger" depart="0.96" departLane="best">
        <route edges="-191133261 -191132716 -191132673#0 191130835#0 191130835#1 191133065 -84515004#0 67214798#15 67214798#16 67214798#17 67214798#18 191132126 191131247 191131740#0 -191131740#0"/>
    </vehicle>
    <vehicle id="veh2" type="passenger" depart="1.93" departLane="best">
        <route edges="191132716 191133286 191130914 191131791 191132739 191131560"/>
    </vehicle>
    <vehicle id="veh3" type="passenger" depart="2.89" departLane="best">
        <route edges="225209489#11 -225209489#11 -225209489#10 -225209489#9 -225209489#8 -225209489#7 -225209489#6 -225209489#5 -225209489#4 -225209489#3 -225209489#2 -225209489#1 -225209489#0 304525875#2 304525875#3 304525875#4 304525875#5 304525875#6 264120324#1 264120322 264120321#1 264120321#2 264120321#3 264120321#4 264120321#5 264120321#6 164299592#0 164299592#1 164299592#2 164299592#3 164299592#4 164299592#5 -164299592#5"/>
    </vehicle>
    <vehicle id="veh4" type="passenger" depart="3.85" departLane="best">
        <route edges="-225209489#14 -225209489#13 -225209489#12 -225209489#11 -225209489#10 -225209489#9 -225209489#8 -225209489#7 -225209489#6 -225209489#5 -225209489#4 -225209489#3 -225209489#2 -225209489#1 -225209489#0 304525875#2 304525875#3 304525875#4 304525875#5 304525875#6 264120324#1 264120322 264120321#1 264120321#2 264120321#3 264120321#4 264120321#5 264120321#6 164299592#0 164299592#1 164299592#2 164299592#3 164299592#4 164299592#5 164299592#6 -191132604#1 -191132604#0 164299594#2 164299594#3 -163508443#9"/>
    </vehicle>
    <vehicle id="veh5" type="passenger" depart="4.81" departLane="best">
        <route edges="-163508449#0 163508449#0 163508449#1 191353114#10 191353114#11 191353114#12 -67209975 420910008 191353111#1 191353111#2 191157345#0 191157345#1 -191132291#1 -191132291#0 -191131160"/>
    </vehicle>
    <vehicle id="veh6" type="passenger" depart="5.78" departLane="best">
        <route edges="184735653#3 -184735653#3 164371222#2 -164299600#4 164371207#0 164299590#1"/>
    </vehicle>
    <vehicle id="veh7" type="passenger" depart="6.74" departLane="best">
        <route edges="-191131905 191132983 67214798#19 67214798#20 67214837#1 67214837#2 67214837#3 191353121 67209976#0 67209976#1 67209976#2 67209976#3 67209976#4 67209976#5 67209976#6 432587091#1 432587091#2 164371227#1 164371221#1"/>
    </vehicle>
    <vehicle id="veh8" type="passenger" depart="7.70" departLane="best">
        <route edges="191306836 67214798#2 67214798#3 67214798#4 67214798#5 67214798#6 67214798#7 67214798#8 67214798#9 67214798#10 67214798#11 67214798#12 67214798#14 67214798#15 67214798#16 67214798#17 67214798#18 67214798#19 67214798#20 67214837#1 67214837#2 67214837#3 191353121 67209976#0 67209976#1 67209976#2 67209976#3 67209976#4 191353114#5 -191132329 191132180 163508440#2 -163045545#0"/>
    </vehicle>
    <vehicle id="veh9" type="passenger" depart="8.66" departLane="best">
        <route edges="191306193 191310084 -164887582#5 -164887582#4 -164887582#3 -164887582#2 -164887582#1 -164887582#0 61843390#1 61843390#2 304525875#1 304525875#2 304525875#3 304525875#4 304525875#5 304525875#6 264120324#1 264120322 264120321#1 264120321#2 264120321#3 264120321#4 264120321#5 264120321#6 164299592#0 164299592#1 164299592#2 164299592#3 164299592#4 164299594#0 -164299602#2 191132106"/>
    </vehicle>
    <vehicle id="veh10" type="passenger" depart="9.63" departLane="best">
        <route edges="-191306889 164887582#10 67214798#4 67214798#5 67214798#6 67214798#7 67214798#8 67214798#9 67214798#10 67214798#11 67214798#12 67214798#14 67214798#15 84514785#0 84514785#1 84514785#2 84514785#3 84514785#4 164033494#6 191157373#0 191157373#1 191157373#2 191353111#5 191353111#6 191353111#7 191353111#8 165678259#0 165678259#1 -165678259#1"/>
    </vehicle>
    <vehicle id="veh11" type="passenger" depart="10.59" departLane="best">
        <route edges="67214798#1 67214798#2 67214798#3 -164887582#10 -164887582#9 -164887582#8 -164887582#7 -164887582#6 -164887582#5 191308680 -191308680"/>
    </vehicle>
    <vehicle id="veh12" type="passenger" depart="11.55" departLane="best">
        <route edges="-164299602#1 164299602#1 164299602#2 -164299594#0 164371220#0 164371220#1 -164371207#1 164299590#1 -191133516 -191131476 -164299600#1"/>
    </vehicle>
    <vehicle id="veh13" type="passenger" depart="12.51" departLane="best">
        <route edges="191353111#2 191353111#3 191353111#4 191353111#5 191353111#6 264120321#2 164886494#0 164886494#1 164886494#2 164886494#3 164886494#4"/>
    </vehicle>
    <vehicle id="veh14" type="passenger" depart="13.48" departLane="best">
        <route edges="191306193 191310084 -164887582#5 -164887582#4 -164887582#3 -164887582#2 -164887582#1 -164887582#0 61843390#1 61843390#2 304525875#1 304525875#2 304525875#3 304525875#4 304525875#5 304525875#6 264120324#1 264120322 264120321#1 264120321#2 264120321#3 264120321#4 264120321#5 264120321#6 164299592#0 164299592#1 164299592#2 164299592#3 164299592#4 164299592#5 164299592#6 164299592#7 164299592#9 -86813499#1 191132950"/>
    </vehicle>
    <vehicle id="veh15" type="passenger" depart="14.44" departLane="best">
        <route edges="164033491#0 164902631#1 -164033494#1 -222850631 -191131160 191131303 -67214798#17 -67214798#16 -67214798#15 -67214798#14 -67214798#12 -67214798#11 -67214798#10 -67214798#9 -67214798#8 -67214798#7 -67214798#6 -67214798#5 67214798#5"/>
    </vehicle>
    <vehicle id="veh16" type="passenger" depart="15.40" departLane="best">
        <route edges="-191353123 191130829#6 67209971#10 -164298200#3 163508460#1 163508460#2 -164299592#2 164299592#2"/>
    </vehicle>
    <vehicle id="veh17" type="passenger" depart="16.36" departLane="best">
        <route edges="191311084 -191307546 67214798#3 -164887582#10 -164887582#9 164887582#9"/>
    </vehicle>
    <vehicle id="veh18" type="passenger" depart="17.33" departLane="best">
        <route edges="191353114#8 67209976#2 -164248635#3 -164248635#2 163508460#0 163508460#1 163508460#2 184735653#1 -164039751#3 164299604#3"/>
    </vehicle>
    <vehicle id="veh19" type="passenger" depart="18.29" departLane="best">
        <route edges="191131740#1 191353111#2 191353111#3 -164033491#1 -164033491#0"/>
    </vehicle>
    <vehicle id="veh20" type="passenger" depart="19.25" departLane="best">
        <route edges="-164299594#3 -164299594#2 191132604#0 191132604#1 -164299592#6 -164299592#5 -164299592#4 -164299592#3 -164299592#2 -164299592#1 -164299592#0 264120321#7 264120321#8 420910011#1 191353110 -191353121 -67214837#3 -67214837#2 -67214837#1 -67214837#0 -67214798#19 191132126 -191132064"/>
    </vehicle>
    <vehicle id="veh21" type="passenger" depart="20.21" departLane="best">
        <route edges="-164371207#2 -164371220#1 -164371220#0 -164299592#4 -164299592#3 -164299592#2 -164299592#1 -164299592#0 264120321#7 264120321#8 420910011#1 191353110 -191353121 -67214837#3 -67214837#2 -67214837#1 -67214837#0 -67214798#19 -67214798#18 -67214798#17 -191133204 -191133430"/>
    </vehicle>
    <vehicle id="veh22" type="passenger" depart="21.18" departLane="best">
        <route edges="164887582#3 164887582#4 164887582#5 164887582#6 164887582#7 164887582#8 164887582#9 164887582#10 67214798#4 67214798#5 67214798#6 67214798#7 67214798#8 67214798#9 67214798#10 67214798#11 67214798#12 67214798#14 67214798#15 67214798#16 67214798#17 191131211 191132133 -191319786"/>
    </vehicle>
    <vehicle id="veh24" type="passenger" depart="23.10" departLane="best">
        <route edges="-191133144 -164371207#3 -164371207#2 -164371207#1 164299590#1 -191133516 -191130670#1 -191130670#0 -191133813 -191130778 -191133952#1 -191133952#0 191132292 -165678259#0 -304525875#6 -304525875#5 304525875#5"/>
    </vehicle>
    <vehicle id="veh25" type="passenger" depart="24.06" departLane="best">
        <route edges="184735653#1 -164039751#3 -164299604#2 -191353115 191353134#1 164887193#0"/>
    </vehicle>
    <vehicle id="veh26" type="passenger" depart="25.03" departLane="best">
        <route edges="-191130679#1 -191130679#0 -191131718 191133952#1 191134163 -184735653#7 -184735653#6 -184735653#5 -184735653#3 -184735653#2 -184735653#1 164299592#3 164299592#4 164299592#5 164299592#6 164299592#7 164299592#9 -86813499#1 191132950"/>
    </vehicle>
    <vehicle id="veh27" type="passenger" depart="25.99" departLane="best">
        <route edges="-184735653#8 -191134163 -191133952#1 -191133952#0 191132292 -165678259#0 -304525875#6 198529420#0 -198529420#0"/>
    </vehicle>
    <vehicle id="veh28" type="passenger" depart="26.95" departLane="best">
        <route edges="84515004#2 -84515004#2 -84515004#1 -84515004#0 67214798#15 67214798#16 67214798#17 67214798#18 67214798#19 67214798#20 67214837#1 67214837#2 67214837#3 191353121 67209976#0 67209971#6 67209971#7 -163508463#4 -163508439#3 -163508439#2 -163508439#1 -163508439#0 163508443#6 163508460#2 184735653#1 184735653#2 184735653#3"/>
    </vehicle>
    <vehicle id="veh29" type="passenger" depart="27.92" departLane="best">
        <route edges="164039758#2 264120321#4 264120321#5 264120321#6 264120321#7 264120321#8 420910011#1 191353110 -191353121 -67214837#3 -67214837#2 -67214837#1 -67214837#0 -67214798#19 -67214798#18 191131211 191131746"/>
    </vehicle>
    <vehicle id="veh30" type="passenger" depart="28.88" departLane="best">
        <route edges="191312878 164887582#5 164887582#6 164887582#7 164887582#8 164887582#9 164887582#10 67214798#4 67214798#5 67214798#6 67214798#7 191133268 -191133386 191133980 191132688 191133841"/>
    </vehicle>
    <vehicle id="veh31" type="passenger" depart="29.84" departLane="best">
        <route edges="-191132133 -191131211 67214798#18 67214798#19 67214798#20 67214837#1 67214837#2 67214837#3 191353121 67209976#0 67209971#6 67209971#7 67209971#8 67209971#9 67209971#10 -164298200#3 -163508460#0"/>
    </vehicle>
    <vehicle id="veh32" type="passenger" depart="30.80" departLane="best">
        <route edges="-191134057#0 67214798#12 67214798#14 67214798#15 67214798#16 67214798#17 67214798#18 67214798#19 67214798#20 67214837#1 67214837#2 67214837#3 191353121 67209976#0 67209976#1 67209976#2 67209976#3 67209976#4 -191133199#0"/>
    </vehicle>
    <vehicle id="veh33" type="passenger" depart="31.77" departLane="best">
        <route edges="-191131740#1 -191131740#0 -191131247 -191132126 67214798#19 67214798#20 67214837#1 67214837#2 67214837#3 191353121 67209976#0 67209976#1 67209976#2 67209976#3 67209976#4 67209976#5 67209976#6 432587091#1 432587091#2"/>
    </vehicle>
    <vehicle id="veh34" type="passenger" depart="32.73" departLane="best">
        <route edges="222850630 164033494#5 -84514785#4 -84514785#3 -84514785#2 -84514785#1 -84514785#0 -67214798#15 -67214798#14 -67214798#12 -67214798#11 -67214798#10 -191134153"/>
    </vehicle>
    <vehicle id="veh35" type="passenger" depart="33.69" departLane="best">
        <route edges="191130587#1 191353114#7 191353114#8 191353114#9 191353114#10 191353114#11 191353114#12 -67209975 420910008 191353111#1 191353111#2 191353111#3 191353111#4 191353111#5 191353111#6 191353111#7 -224708105 -304525875#4 -304525875#3 -304525875#2 225209489#0 225209489#1 225209489#2 225209489#3 225209489#4 225209489#5 225209489#6 225209489#7 225209489#8 225209489#9 225209489#10 -225209489#10"/>
    </vehicle>
    <vehicle id="veh36" type="passenger" depart="34.65" departLane="best">
        <route edges="304525875#3 304525875#4 304525875#5 304525875#6 264120324#1 264120322 264120321#1 264120321#2 264120321#3 264120321#4 264120321#5 264120321#6 264120321#7 264120321#8 420910011#1 191353110 -191353121 -67209975 420910008 191353111#1 191353111#2 191353111#3 191353111#4 -191157373#2 -191157373#1 -191157373#0 -164033494#6 -84514785#4 -84514785#3"/>
    </vehicle>
    <vehicle id="veh37" type="passenger" depart="35.62" departLane="best">
        <route edges="-191133144 -164371207#3 -164371207#2 -164371220#1 -164371220#0 -164299592#4 -164299592#3 -164299592#2 -164299592#1 -164299592#0 264120321#7 264120321#8 420910011#1 191353110 -191353121 -67214837#3 -67214837#2 -67214837#1 -191131925 -191132399"/>
    </vehicle>
    <vehicle id="veh38" type="passenger" depart="36.58" departLane="best">
        <route edges="164248635#0 164248635#1 163508430 -67209971#11 -67209971#10 -67209971#9 -67209971#8 -67209971#7 163508465#0 163508465#1 420910011#1 191353110 -191353121 -67214837#3 -67214837#2 -67214837#1 -67214837#0 -67214798#19 -191132983"/>
    </vehicle>
    <vehicle id="veh39" type="passenger" depart="37.54" departLane="best">
        <route edges="164299598#2 164248635#1 163508430 -67209971#11 -67209971#10 -67209971#9 -67209971#8 -67209971#7 163508465#0 163508465#1 420910011#1 191353110 -191353121 -67209975 420910008 191353111#1 191353111#2 191353111#3 191353111#4 -191157373#2 -191157373#1 -191157373#0 -164033494#6 -84514785#4 223790525"/>
    </vehicle>
    <vehicle id="veh40" type="passenger" depart="38.50" departLane="best">
        <route edges="-222850632 84514785#2 84514785#3 84514785#4 164033494#6 191157373#0 191157373#1 191157373#2 191353111#5 191353111#6 191353111#7 191353111#8 165678259#0 -191130679#0 -191131718 191133952#1 191134163 164299600#0 164299600#1 164299600#2 -191131637"/>
    </vehicle>
    <vehicle id="veh41" type="passenger" depart="39.47" departLane="best">
        <route edges="86813499#0 86813499#1 -164299592#9 -164299592#7 -164299592#6 -164299592#5 -164299592#4 -164299592#3 -184735653#0 163508460#2"/>
    </vehicle>
    <vehicle id="veh42" type="passenger" depart="40.43" departLane="best">
        <route edges="-164299600#4 164299600#4 164299600#5 413952062#0 -164299592#3 -164299592#2 -164299592#1 -164299592#0 264120321#7 264120321#8 420910011#1 191353110 -191353121 -67209975 420910008 191353111#1 191353111#2 191157345#0 -164033495#0 222850635#0 164033494#0 -164033494#0"/>
    </vehicle>
    <vehicle id="veh43" type="passenger" depart="41.39" departLane="best">
        <route edges="-164371221#2 164371230#1 191353114#2 191353114#3 191353114#4 191353114#5 191353114#7 191353114#8 191353114#9 191353114#10 191353114#11 191353114#12 -67209975 420910008 191353111#1 191353111#2 191353111#3 191353111#4 191353111#5 191353111#6 191353111#7 191353111#8 165678261"/>
    </vehicle>
    <vehicle id="veh44" type="passenger" depart="42.35" departLane="best">
        <route edges="191157329 164033495#5 -224707332 -191132126 67214798#19 67214798#20 67214837#1 67214837#2 67214837#3 191353121 67209976#0 -67209971#4 -67209971#3 -67209971#2 -67209971#1 -67209971#0"/>
    </vehicle>
    <vehicle id="veh45" type="passenger" depart="43.32" departLane="best">
        <route edges="-164299590#0 -164039751#5 413952062#0 -164299592#3 -164299592#2 -164299592#1 -164299592#0 264120321#7 264120321#8 420910011#1 191353110 -191353121 -67209975 420910008 191353111#1 191353111#2 191353111#3 191353111#4 191353111#5 191353111#6 -222842347"/>
    </vehicle>
    <vehicle id="veh46" type="passenger" depart="44.28" departLane="best">
        <route edges="86813499#0 86813499#1 -164299592#9 -164299592#7 -164299592#6 -164299592#5 -164299592#4 -164299592#3 -164299592#2 -164299592#1 -164299592#0 264120321#7 264120321#8 420910011#1 191353110 -191353121 -67209975 420910008 224707331 191157329 164033495#5"/>
    </vehicle>
    <vehicle id="veh47" type="passenger" depart="45.24" departLane="best">
        <route edges="67214798#8 67214798#9 67214798#10 67214798#11 67214798#12 67214798#14 67214798#15 67214798#16 67214798#17 67214798#18 67214798#19 67214798#20 67214837#1 67214837#2 67214837#3 191353121 67209976#0 67209976#1 191130829#5 191353123"/>
    </vehicle>
    <vehicle id="veh48" type="passenger" depart="46.20" departLane="best">
        <route edges="-163508437#1 163508437#1 163508463#3 163508463#4 -67209971#7 163508465#0 163508465#1 420910011#1 191353110 -191353121 -67214837#3 -67214837#2 -67214837#1 -67214837#0 -67214798#19 -67214798#18 -67214798#17 -67214798#16 -67214798#15 84515004#0 -191133065 -191130835#1 -191130835#0 191132673#0 191132673#1"/>
    </vehicle>
    <vehicle id="veh49" type="passenger" depart="47.17" departLane="best">
        <route edges="191130835#1 191133065 -84515004#0 67214798#15 84514785#0 84514785#1 84514785#2 84514785#3 84514785#4 164033494#6 191157373#0 191157373#1 191157373#2 191353111#5 191353111#6 264120321#2 164886494#0 164039758#0"/>
    </vehicle>
    <vehicle id="veh50" type="passenger" depart="48.13" departLane="best">
        <route edges="-191133144 -164371207#3 -164371207#2 -164371220#1 -164039751#6 -164039751#5 -164039751#4 184735653#2 184735653#3 184735653#4"/>
    </vehicle>
    <vehicle id="veh51" type="passenger" depart="49.09" departLane="best">
        <route edges="-164371222#1 -164371222#0 164299604#1 164299604#2 -164039751#2 -164039751#1 -164039751#0 264120321#6 264120321#7 264120321#8 420910011#1 191353110 -191353121 -67214837#3 -67214837#2 -67214837#1 -67214837#0 -67214798#19 -67214798#18 -67214798#17 -67214798#16 -67214798#15 -67214798#14 -67214798#12 -67214798#11 -67214798#10 -67214798#9 -67214798#8 -67214798#7 -67214798#6 -67214798#5 -67214798#4 -67214798#3 -67214798#2 -67214798#1 -67214798#0"/>
    </vehicle>
    <vehicle id="veh52" type="passenger" depart="50.05" departLane="best">
        <route edges="-67214798#10 67214798#10 67214798#11 67214798#12 67214798#14 67214798#15 67214798#16 67214798#17 67214798#18 67214798#19 67214798#20 67214837#1 67214837#2 67214837#3 191353121 67209976#0 67209971#6 67209971#7 67209971#8"/>
    </vehicle>
    <vehicle id="veh53" type="passenger" depart="51.02" departLane="best">
        <route edges="222850630 -164033494#4 -164033494#3 -164033494#2 -164033494#1 -222850631 -191131160 191131303 67214798#18 67214798#19 67214798#20 -191132717 -191134031 -191134008 191131560 -191133021"/>
    </vehicle>
    <vehicle id="veh54" type="passenger" depart="51.98" departLane="best">
        <route edges="163508430 -67209971#11 -67209971#10 -67209971#9 -67209971#8 -67209971#7 163508465#0 163508465#1 420910011#1 191353110 -191353121 -67214837#3 -67214837#2 -67214837#1 -67214837#0 -67214798#19 -67214798#18 -67214798#17 -67214798#16 -67214798#15 -67214798#14 -67214798#12 -67214798#11 -67214798#10 -67214798#9 -67214798#8 191133268 -191133386 -191130702"/>
    </vehicle>
    <vehicle id="veh55" type="passenger" depart="52.94" departLane="best">
        <route edges="304525875#1 304525875#2 304525875#3 304525875#4 304525875#5 198529420#0"/>
    </vehicle>
    <vehicle id="veh56" type="passenger" depart="53.91" departLane="best">
        <route edges="-191133793 -191133594 191133841 191133925 191130835#0 191130835#1 191133065 -84515004#0 67214798#15 67214798#16 67214798#17 67214798#18 67214798#19 67214798#20 67214837#1 67214837#2 67214837#3 191353121 67209976#0 67209971#6 67209971#7 -163508463#4 -163508439#3 -163508439#2 -163508439#1 -163508439#0 163508443#6 163508460#2 184735653#1 184735653#2"/>
    </vehicle>
    <vehicle id="veh57" type="passenger" depart="54.87" departLane="best">
        <route edges="164371221#0 -164371227#1 191353114#1 191353114#2 191353114#3 191353114#4 191353114#5 191353114#7 191353114#8 191353114#9 191353114#10 191353114#11 191353114#12 -67209975 420910008 191353111#1 191353111#2 191353111#3 -164033491#1 -164902631#0"/>
    </vehicle>
    <vehicle id="veh58" type="passenger" depart="55.83" departLane="best">
        <route edges="191133660 84515004#13 84515004#14 84515004#15 84515004#16 163508440#0 191130588#1 191130587#0 191130587#1 191353114#7 -164248635#3 -164248635#2 -164248635#1 164248635#1"/>
    </vehicle>
    <vehicle id="veh59" type="passenger" depart="56.79" departLane="best">
        <route edges="191134018 304525875#4 304525875#5 304525875#6 264120324#1 264120322 264120321#1 264120321#2 264120321#3 264120321#4 264120321#5 264120321#6 264120321#7 264120321#8 420910011#1 191353110 -191353121 -67209975 420910008 224707331 191157329 164033495#5 164033495#6"/>
    </vehicle>
    <vehicle id="veh60" type="passenger" depart="57.76" departLane="best">
        <route edges="-163045545#1 -163508440#2 191133717#1 191132329 191353114#7 191353114#8 191353114#9 191353114#10 191353114#11 191353114#12 -67209975 420910008 191353111#1 191353111#2 191353111#3 191353111#4 -191157373#2"/>
    </vehicle>
    <vehicle id="veh62" type="passenger" depart="59.68" departLane="best">
        <route edges="222850634 -222850634 -191157343#1 -191157343#0 -164033494#6 -84514785#4 -84514785#3 -84514785#2 -84514785#1 -84514785#0 -67214798#15 -67214798#14 -67214798#12 -67214798#11 -67214798#10 -67214798#9 -67214798#8 -67214798#7 -67214798#6 -67214798#5 -67214798#4 -164887582#10 -164887582#9 -164887582#8 -164887582#7 -164887582#6 -164887582#5 191308680 191312058"/>
    </vehicle>
    <vehicle id="veh63" type="passenger" depart="60.64" departLane="best">
        <route edges="-191133945 84515004#14 84515004#15 67209971#2 67209971#3 67209971#4 191353114#11 191353114#12 -67209975 420910008 224707331 -191157339#0 -164033495#3 -164033495#6"/>
    </vehicle>
    <vehicle id="veh64" type="passenger" depart="61.61" departLane="best">
        <route edges="222850633 164039758#1 164039758#2 264120321#4 264120321#5 264120321#6 264120321#7 264120321#8 -163508465#1 -163508465#0 67209971#7 67209971#8 67209971#9 67209971#10"/>
    </vehicle>
    <vehicle id="veh65" type="passenger" depart="62.57" departLane="best">
        <route edges="-164299598#1 164299598#1 164299598#2 164248635#1 163508430"/>
    </vehicle>
    <vehicle id="veh66" type="passenger" depart="63.53" departLane="best">
        <route edges="-164299592#10 -164299592#9 -164299592#7 -164299592#6 -164299592#5 -164299592#4 -164299592#3 -164299592#2 -164299592#1 -164299592#0 264120321#7 264120321#8 420910011#1 191353110 -191353121 -67214837#3 -67214837#2 -67214837#1 -67214837#0 -67214798#19 -67214798#18 -67214798#17 -67214798#16 -67214798#15 -67214798#14 -191133863 -191133495 191133495"/>
    </vehicle>
    <vehicle id="veh67" type="passenger" depart="64.49" departLane="best">
        <route edges="191133774 191132421#1 191133863 67214798#14 67214798#15 67214798#16 67214798#17 67214798#18 67214798#19 67214798#20 67214837#1 67214837#2 67214837#3 191353121 67209976#0 67209976#1 67209976#2 67209976#3 67209976#4 67209976#5 67209976#6 432587091#1 -164371230#1"/>
    </vehicle>
    <vehicle id="veh68" type="passenger" depart="65.46" departLane="best">
        <route edges="-84515004#0 67214798#15 67214798#16 67214798#17 67214798#18 67214798#19 67214798#20 67214837#1 67214837#2 67214837#3 191353121 67209976#0 67209971#6 67209971#7 -163508463#4 -163508439#3 -163508439#2 -163508439#1 -163508439#0 163508443#6 163508460#2 164299592#3 164299592#4 164299592#5 164299592#6 164299592#7 164299592#9 164299592#10"/>
    </vehicle>
    <vehicle id="veh69" type="passenger" depart="66.42" departLane="best">
        <route edges="-191133144 -164371207#3 -164371207#2 -164371207#1 164299590#1 -191133516 -191130670#1 -191130670#0 -191133813 -191130778 -191133952#1 -191133952#0 191132292 -165678259#0 -304525875#6 198529420#0 198529420#1"/>
    </vehicle>
    <vehicle id="veh70" type="passenger" depart="67.38" departLane="best">
        <route edges="-225209489#15 -225209489#14 -225209489#13 -225209489#12 -225209489#11 -225209489#10 -225209489#9 -225209489#8 -225209489#7 -225209489#6 -225209489#5 -225209489#4 -225209489#3 -225209489#2 -225209489#1 -225209489#0 304525875#2 304525875#3 304525875#4 304525875#5 304525875#6 165678259#0 -191130679#0 -191131718 191133952#1 191130778 191133813 -191131542"/>
    </vehicle>
    <vehicle id="veh71" type="passenger" depart="68.34" departLane="best">
        <route edges="164033494#2 164033490#0 164033490#1 164033490#2 191157373#2 191353111#5 191353111#6 264120321#2 264120321#3 264120321#4 264120321#5 264120321#6 164299592#0 164299592#1 164299592#2 164299592#3 164299592#4 164299592#5 164299592#6 164299592#7 164299592#9 -86813499#1 191132950"/>
    </vehicle>
    <vehicle id="veh72" type="passenger" depart="69.31" departLane="best">
        <route edges="-191131317 -191132133 -191131211 67214798#18 67214798#19 67214798#20 67214837#1 67214837#2 67214837#3 191353121 67209976#0 67209971#6 67209971#7 -163508463#4 -163508439#3 -163508439#2 -163508439#1 -163508439#0 163508443#6 163508460#2 164299592#3 164299592#4 164371220#0 164371220#1 164371207#2 -191134124"/>
    </vehicle>
    <vehicle id="veh73" type="passenger" depart="70.27" departLane="best">
        <route edges="86813499#0 86813499#1 -164299592#9 -164299592#7 -164299592#6 -164299592#5 -164299592#4 -164299592#3 -164299592#2 -164299592#1 -164299592#0 264120321#7 264120321#8 420910011#1 191353110 -191353121 -67214837#3 -67214837#2 -67214837#1 -67214837#0 -67214798#19 -67214798#18 -67214798#17 -67214798#16 -67214798#15 -67214798#14 -67214798#12 -67214798#11 -67214798#10 -191134153 191130676"/>
    </vehicle>
    <vehicle id="veh74" type="passenger" depart="71.23" departLane="best">
        <route edges="-304525875#3 304525875#3 304525875#4 304525875#5 304525875#6 264120324#1 264120322 264120321#1 264120321#2 264120321#3 264120321#4 264120321#5 264120321#6 264120321#7 264120321#8 420910011#1 191353110 -191353121 -67209975 420910008 191353111#1 191353111#2 191353111#3 -164033491#1 -164033491#0 164033491#0"/>
    </vehicle>
    <vehicle id="veh75" type="passenger" depart="72.19" departLane="best">
        <route edges="-164886494#0 264120321#3 264120321#4 264120321#5 264120321#6 264120321#7 264120321#8 420910011#1 191353110 -191353121 -67214837#3 -67214837#2 -67214837#1 -191132717 -191132114 -191131741"/>
    </vehicle>
    <vehicle id="veh76" type="passenger" depart="73.16" departLane="best">
        <route edges="-191306889 164887582#10 67214798#4 67214798#5 67214798#6 67214798#7 67214798#8 67214798#9 67214798#10 67214798#11 67214798#12 67214798#14 67214798#15 67214798#16 67214798#17 67214798#18 67214798#19 67214798#20 67214837#1 67214837#2 67214837#3 191353121 67209976#0 67209971#6 67209971#7 -163508463#4 -163508439#3 -163508439#2 -163508439#1 -163508439#0 163508443#6 163508460#2 164299592#3 164299592#4 164371220#0 164371220#1"/>
    </vehicle>
    <vehicle id="veh77" type="passenger" depart="74.12" departLane="best">
        <route edges="-191132231 -191132331 -191131872 -191132657 191132132 191131673 -191131673"/>
    </vehicle>
    <vehicle id="veh78" type="passenger" depart="75.08" departLane="best">
        <route edges="-164299592#2 -164299592#1 -164299592#0 264120321#7 264120321#8 420910011#1 191353110 -191353121 -67214837#3 -67214837#2 -67214837#1 -67214837#0 -67214798#19 -67214798#18 -67214798#17 -67214798#16 -67214798#15 -67214798#14 -67214798#12 -67214798#11 -67214798#10 -67214798#9 -67214798#8 -67214798#7 -67214798#6 -67214798#5 -67214798#4 -67214798#3 -67214798#2 -191307458 166775909#2"/>
    </vehicle>
    <vehicle id="veh79" type="passenger" depart="76.04" departLane="best">
        <route edges="-191132133 -191131211 -191131303 191131160 222850631 164033494#1 -164902631#1 164033491#1 191353111#4 191353111#5 191353111#6 191353111#7 -224708105 -304525875#4 -304525875#3 -304525875#2 225209489#0"/>
    </vehicle>
    <vehicle id="veh80" type="passenger" depart="77.01" departLane="best">
        <route edges="191353114#4 191353114#5 191353114#7 -164248635#3 -164248635#2 -164248635#1 -164248635#0"/>
    </vehicle>
    <vehicle id="veh81" type="passenger" depart="77.97" departLane="best">
        <route edges="-191132421#1 191132421#1 191133863 67214798#14 67214798#15 67214798#16 67214798#17 67214798#18 191132126 191131247"/>
    </vehicle>
    <vehicle id="veh82" type="passenger" depart="78.93" departLane="best">
        <route edges="-191131839 -184735653#6 -184735653#5 -184735653#3 -184735653#2 -184735653#1 -184735653#0 -163508460#1 -163508460#0 164248635#2 164248635#3 67209976#3 -164371235#5 191353145#0 191353145#1 191353145#2 -164371235#3 -164371235#2 -164371235#1 -164371235#0"/>
    </vehicle>
    <vehicle id="veh83" type="passenger" depart="79.90" departLane="best">
        <route edges="67209971#11 -163508430 163508460#0 163508460#1 163508460#2 164299592#3 -413952062#0 -164299600#5 164299600#5"/>
    </vehicle>
    <vehicle id="veh84" type="passenger" depart="80.86" departLane="best">
        <route edges="-84514785#2 -84514785#1 -191131693 -191133267 67214798#17 67214798#18 67214798#19 67214798#20 -191132717 -191134031 -191134008 191134008"/>
    </vehicle>
    <vehicle id="veh85" type="passenger" depart="81.82" departLane="best">