<?xml version="1.0" encoding="UTF-8"?>

<!-- generated on Fri Jan 20 16:43:29 2017 by SUMO polyconvert Version 0.27.1
<?xml version="1.0" encoding="UTF-8"?>

<configuration xmlns:xsi="http://www.w3.org/2001/XMLSchema-instance" xsi:noNamespaceSchemaLocation="http://sumo.dlr.de/xsd/polyconvertConfiguration.xsd">

    <input>
        <net-file value="/Users/fujii/sumo/tools/2017-01-20-16-43-01/osm.net.xml"/>
        <osm-files value="osm_bbox.osm.xml"/>
        <osm.keep-full-type value="true"/>
        <type-file value="/Users/fujii/sumo/data/typemap/osmPolyconvert.typ.xml"/>
    </input>

    <output>
        <output-file value="/Users/fujii/sumo/tools/2017-01-20-16-43-01/osm.poly.xml"/>
    </output>

    <processing>
        <poi-layer-offset value="5"/>
    </processing>

    <report>
        <verbose value="true"/>
    </report>

</configuration>
-->

<additional xmlns:xsi="http://www.w3.org/2001/XMLSchema-instance" xsi:noNamespaceSchemaLocation="http://sumo.dlr.de/xsd/additional_file.xsd">
    <location netOffset="-609901.35,-3715638.79" convBoundary="0.00,-6730.78,10109.12,7222.93" origBoundary="130.184271,33.513006,130.292266,33.639796" projParameter="+proj=utm +zone=52 +ellps=WGS84 +datum=WGS84 +units=m +no_defs"/>

    <poly id="100012599" type="amenity.parking" color="184,184,179" fill="1" layer="-1.00" shape="3371.48,2682.48 3442.95,2713.19 3461.90,2669.51 3448.12,2663.90 3390.22,2640.32 3380.51,2662.15 3371.48,2682.48"/>
    <poly id="100017226" type="building.yes" color="255,230,230" fill="1" layer="-1.00" shape="3071.29,2387.84 3076.70,2371.47 3090.17,2347.68 3123.80,2360.04 3157.17,2370.80 3195.78,2377.92 3202.01,2378.47 3205.25,2378.76 3229.61,2380.92 3227.64,2389.41 3233.76,2388.38 3232.76,2420.77 3205.35,2418.40 3170.08,2411.70 3136.67,2405.01 3108.49,2396.53 3071.29,2387.84"/>
    <poly id="100111869" type="landuse.forest" color="140,196,107" fill="1" layer="-3.00" shape="3447.41,2843.79 3441.48,2839.43 3435.90,2834.41 3430.65,2828.72 3424.11,2820.38 3425.17,2814.45 3424.31,2803.54 3425.40,2795.63 3425.84,2786.05 3427.26,2778.79 3426.02,2770.85 3422.81,2761.56 3418.51,2760.19 3413.18,2761.77 3410.23,2758.76 3413.93,2754.51 3414.97,2750.56 3414.37,2745.59 3416.73,2741.99 3420.04,2742.69 3422.33,2745.36 3425.03,2742.75 3423.76,2737.77 3426.12,2734.17 3432.67,2741.85 3438.30,2742.90 3438.67,2739.60 3436.39,2735.95 3432.12,2732.59 3424.52,2728.87 3418.25,2725.82 3409.00,2722.74 3401.37,2721.32 3395.08,2720.26 3389.43,2720.19 3384.78,2720.47 3385.50,2716.17 3389.84,2713.92 3395.17,2712.33 3402.82,2711.42 3413.75,2714.20 3425.95,2719.96 3437.50,2726.05 3443.41,2732.06 3450.60,2741.73 3453.69,2732.85 3454.10,2726.24 3452.89,2716.65 3453.31,2709.05 3451.72,2702.75 3458.86,2688.96 3466.21,2684.42 3468.17,2687.42 3468.76,2693.37 3485.76,2688.28 3480.70,2694.83 3481.30,2700.79 3488.28,2699.88 3495.59,2698.98 3499.22,2700.67 3500.94,2695.07 3504.99,2689.83 3512.58,2693.55 3515.21,2695.90 3520.47,2700.26 3523.74,2703.93 3532.47,2696.11 3537.43,2697.82 3547.64,2704.21 3555.18,2712.57 3558.84,2711.61 3563.73,2719.61 3563.99,2726.21 3583.37,2742.96 3593.88,2752.67 3601.54,2750.78 3609.13,2755.17 3614.67,2763.16 3615.94,2768.47 3614.86,2775.72 3614.11,2782.65 3622.31,2790.68 3627.87,2798.02 3608.62,2825.55 3605.10,2826.13 3598.36,2830.20 3595.49,2833.56 3590.18,2841.88 3586.55,2845.85 3582.44,2850.50 3580.91,2854.17 3579.23,2856.44 3577.35,2858.47 3575.28,2860.45 3574.19,2861.80 3573.60,2862.07 3570.61,2864.86 3569.01,2865.97 3565.83,2868.13 3562.47,2869.20 3558.55,2871.02 3556.62,2871.86 3553.88,2873.07 3550.49,2873.54 3547.04,2876.20 3541.17,2876.62 3528.29,2881.33 3525.15,2884.23 3522.26,2885.50 3519.93,2885.55 3515.04,2888.06 3510.82,2888.34 3506.03,2891.69 3501.04,2892.70 3495.29,2892.28 3486.41,2886.22 3479.52,2878.87 3482.25,2872.63 3484.96,2868.02 3489.65,2863.79 3494.07,2856.24 3489.56,2844.29 3485.02,2835.32 3479.41,2832.27 3475.04,2837.18 3470.03,2839.10 3462.38,2840.01 3457.08,2839.61 3451.73,2842.86 3447.41,2843.79"/>
    <poly id="101185918" type="landuse.forest" color="140,196,107" fill="1" layer="-3.00" shape="3185.36,2780.94 3181.30,2770.51 3176.13,2767.34 3173.12,2756.92 3165.34,2753.20 3167.56,2742.33 3174.43,2734.10 3165.66,2725.69 3171.00,2715.90 3181.45,2713.95 3187.81,2705.19 3188.43,2696.39 3179.61,2693.17 3185.45,2683.89 3188.17,2674.06 3189.80,2668.89 3185.21,2660.53 3190.00,2651.77 3195.27,2647.67 3203.84,2628.06 3212.08,2636.98 3226.36,2620.01 3254.50,2621.39 3258.59,2627.66 3252.67,2643.68 3257.30,2648.92 3261.03,2641.70 3279.22,2647.63 3291.80,2641.55 3312.63,2644.39 3334.01,2644.12 3347.63,2639.09 3367.60,2625.84 3373.61,2646.15 3382.53,2641.58 3380.51,2662.15 3362.78,2680.28 3361.98,2704.13 3363.44,2712.98 3385.50,2716.17 3384.78,2720.47 3377.15,2744.80 3369.75,2752.50 3355.87,2736.24 3350.03,2744.48 3334.43,2740.66 3327.14,2740.06 3330.86,2733.87 3320.99,2730.64 3319.36,2736.85 3305.73,2742.91 3297.33,2747.49 3297.76,2755.79 3295.57,2764.07 3282.98,2770.68 3272.09,2765.36 3263.23,2765.77 3256.31,2777.11 3242.30,2771.23 3231.30,2775.26 3216.78,2768.86 3205.23,2775.46 3197.39,2776.94 3185.36,2780.94"/>
    <poly id="101290805" type="landuse.forest" color="140,196,107" fill="1" layer="-3.00" shape="3665.63,3051.35 3657.89,3032.25 3662.86,3016.47 3653.78,2976.78 3676.08,2973.87 3684.46,2939.12 3700.67,2913.98 3727.98,2892.12 3725.06,2869.92 3746.04,2844.83 3777.90,2842.03 3806.05,2883.54 3822.84,2943.93 3841.88,2948.91 3852.77,2969.63 3838.21,2990.05 3819.07,2992.98 3794.97,3013.29 3804.36,3026.07 3836.12,3031.20 3892.17,3001.77 3901.40,3028.80 3893.17,3050.88 3929.06,3111.49 3884.27,3131.54 3848.88,3162.81 3813.83,3167.14 3774.13,3160.34 3739.39,3137.76 3706.45,3097.77 3665.63,3051.35"/>
    <poly id="164887188" type="leisure.park" color="207,245,201" fill="1" layer="-2.00" shape="4154.49,2304.68 4131.66,2324.24 4083.31,2273.18 4106.89,2253.05 4154.49,2304.68"/>
    <poly id="164887190" type="landuse.reservoir" color="194,194,130" fill="1" layer="-3.00" shape="3894.33,2324.75 3889.28,2308.63 3883.58,2303.71 3866.85,2289.28 3849.57,2276.06 3818.38,2259.63 3799.71,2253.77 3802.65,2262.91 3795.16,2269.33 3778.50,2278.25 3775.35,2286.02 3756.42,2301.41 3730.08,2318.02 3721.64,2330.94 3717.20,2337.83 3726.17,2353.99 3745.72,2359.43 3762.21,2365.26 3775.34,2361.08 3791.43,2363.87 3803.13,2370.09 3815.31,2371.53 3830.62,2367.81 3868.75,2350.04 3880.58,2341.73 3889.40,2335.54 3894.33,2324.75"/>
    <poly id="165694547" type="building.university" color="255,230,230" fill="1" layer="-1.00" shape="3588.06,2557.19 3593.51,2538.42 3651.89,2558.41 3645.81,2578.19 3588.06,2557.19"/>
    <poly id="165694554" type="building.university" color="255,230,230" fill="1" layer="-1.00" shape="3575.31,2490.81 3581.15,2468.41 3709.87,2514.35 3701.42,2537.69 3621.41,2507.95 3575.31,2490.81"/>
    <poly id="165694557" type="amenity.restaurant" color="237,199,199" fill="1" layer="-1.00" shape="3554.92,2577.36 3555.27,2582.84 3557.31,2587.93 3560.86,2592.14 3566.03,2595.24 3571.94,2596.40 3577.90,2595.51 3583.20,2592.64 3587.20,2588.16 3589.45,2582.59 3589.65,2576.59 3587.81,2570.88 3584.11,2566.14 3579.51,2563.12 3574.18,2561.68 3568.67,2561.97 3563.53,2563.94 3559.26,2567.42 3556.29,2572.04 3554.92,2577.36"/>
    <poly id="165694557#1" type="building.university" color="255,230,230" fill="1" layer="-1.00" shape="3554.92,2577.36 3555.27,2582.84 3557.31,2587.93 3560.86,2592.14 3566.03,2595.24 3571.94,2596.40 3577.90,2595.51 3583.20,2592.64 3587.20,2588.16 3589.45,2582.59 3589.65,2576.59 3587.81,2570.88 3584.11,2566.14 3579.51,2563.12 3574.18,2561.68 3568.67,2561.97 3563.53,2563.94 3559.26,2567.42 3556.29,2572.04 3554.92,2577.36"/>
    <poly id="165694559" type="leisure.pitch" color="207,245,201" fill="1" layer="-2.00" shape="3439.52,2467.49 3431.76,2515.75 3374.07,2511.37 3388.21,2425.94 3395.30,2413.69 3409.29,2403.98 3423.66,2404.90 3437.93,2413.95 3447.20,2433.82 3439.52,2467.49"/>
    <poly id="165694561" type="natural.water" color="181,209,209" fill="1" layer="-4.00" shape="3654.61,2421.62 3656.02,2429.74 3659.97,2436.97 3666.02,2442.59 3673.57,2445.98 3682.10,2446.77 3690.43,2444.71 3697.61,2440.03 3702.82,2433.24 3705.48,2425.12 3705.30,2416.59 3702.29,2408.60 3696.80,2402.03 3689.43,2397.65 3681.33,2395.96 3673.12,2396.93 3665.63,2400.46 3659.68,2406.17 3655.87,2413.48 3654.61,2421.62"/>
    <poly id="165694566" type="landuse.grass" color="194,194,130" fill="1" layer="-3.00" shape="3568.01,2394.43 3593.29,2390.20 3635.97,2382.16 3639.46,2384.29 3639.89,2391.62 3637.96,2407.30 3646.50,2426.07 3653.97,2431.91 3652.90,2418.47 3655.63,2409.60 3657.29,2402.48 3662.07,2398.52 3648.38,2370.44 3644.73,2367.43 3627.80,2362.17 3610.76,2365.98 3597.19,2371.93 3582.34,2382.22 3568.01,2394.43"/>
    <poly id="165694567" type="landuse.grass" color="194,194,130" fill="1" layer="-3.00" shape="3559.87,2445.63 3634.23,2471.10 3678.25,2483.13 3694.01,2483.68 3707.55,2479.64 3688.81,2449.25 3664.99,2448.79 3650.05,2436.40 3635.87,2420.53 3634.08,2409.18 3632.11,2397.81 3626.06,2391.46 3610.96,2392.68 3595.15,2396.15 3563.02,2401.53 3552.08,2407.51 3547.41,2416.87 3545.16,2428.71 3549.95,2438.88 3559.87,2445.63"/>
    <poly id="165694570" type="landuse.grass" color="194,194,130" fill="1" layer="-3.00" shape="3714.74,2479.73 3697.76,2448.30 3702.37,2443.82 3710.43,2429.44 3709.01,2416.34 3703.54,2404.76 3696.44,2397.17 3688.07,2393.41 3672.13,2392.35 3669.16,2391.27 3652.11,2352.17 3656.71,2347.86 3668.94,2351.67 3680.94,2373.97 3686.77,2370.02 3707.62,2385.45 3729.56,2397.56 3737.48,2409.35 3739.57,2425.07 3738.00,2439.54 3732.02,2455.86 3714.74,2479.73"/>
    <poly id="165694577" type="building.university" color="255,230,230" fill="1" layer="-1.00" shape="3522.30,2581.44 3525.14,2573.44 3527.74,2566.16 3521.70,2563.90 3514.08,2558.39 3508.82,2553.39 3506.95,2550.32 3503.83,2545.19 3501.69,2537.15 3500.29,2529.24 3501.93,2517.54 3486.25,2512.05 3483.82,2528.42 3485.78,2541.40 3487.81,2547.84 3491.19,2554.79 3496.55,2563.12 3504.26,2571.10 3512.87,2576.75 3522.30,2581.44"/>
    <poly id="165694585" type="amenity.university" color="237,199,199" fill="1" layer="-1.00" shape="3480.81,2329.34 3474.73,2318.90 3508.43,2298.83 3514.98,2311.48 3480.81,2329.34"/>
    <poly id="165694606" type="leisure.pitch" color="207,245,201" fill="1" layer="-2.00" shape="3609.46,2344.48 3577.75,2268.18 3559.05,2275.88 3555.36,2266.99 3536.20,2217.41 3536.27,2211.11 3539.11,2201.66 3543.99,2198.37 3573.78,2204.16 3590.08,2199.54 3630.26,2248.86 3636.06,2251.89 3645.22,2252.12 3658.68,2245.87 3698.85,2276.31 3701.47,2284.49 3700.48,2295.08 3695.04,2304.89 3649.99,2327.20 3641.77,2330.94 3609.46,2344.48"/>
    <poly id="165694606#1" type="sport.multi" color="79,230,125" fill="1" layer="-2.00" shape="3609.46,2344.48 3577.75,2268.18 3559.05,2275.88 3555.36,2266.99 3536.20,2217.41 3536.27,2211.11 3539.11,2201.66 3543.99,2198.37 3573.78,2204.16 3590.08,2199.54 3630.26,2248.86 3636.06,2251.89 3645.22,2252.12 3658.68,2245.87 3698.85,2276.31 3701.47,2284.49 3700.48,2295.08 3695.04,2304.89 3649.99,2327.20 3641.77,2330.94 3609.46,2344.48"/>
    <poly id="165694608" type="amenity.bicycle_parking" color="237,199,199" fill="1" layer="-1.00" shape="3560.67,2547.96 3584.62,2556.63 3591.17,2536.60 3566.25,2527.30 3560.67,2547.96"/>
    <poly id="165694618" type="amenity.bicycle_parking" color="237,199,199" fill="1" layer="-1.00" shape="3643.79,2634.55 3657.12,2597.46 3677.60,2605.60 3665.76,2641.97 3661.59,2643.54 3643.79,2634.55"/>
    <poly id="165694620" type="leisure.sports_centre" color="207,245,201" fill="1" layer="-2.00" shape="3537.87,2341.92 3522.41,2307.70 3537.39,2298.75 3535.00,2291.32 3565.90,2277.87 3587.27,2314.88 3537.87,2341.92"/>
    <poly id="165694621" type="amenity.bicycle_parking" color="237,199,199" fill="1" layer="-1.00" shape="3628.11,2628.66 3607.59,2623.94 3610.83,2611.89 3608.97,2611.38 3618.96,2583.56 3641.53,2591.97 3628.11,2628.66"/>
    <poly id="165694628" type="amenity.bicycle_parking" color="237,199,199" fill="1" layer="-1.00" shape="3455.63,2379.84 3424.55,2366.65 3417.19,2360.65 3417.74,2355.72 3422.19,2350.93 3439.61,2345.20 3445.16,2349.98 3455.63,2379.84"/>
    <poly id="165694631" type="leisure.pitch" color="207,245,201" fill="1" layer="-2.00" shape="3473.60,2390.76 3467.95,2386.00 3442.25,2337.59 3470.95,2321.15 3477.99,2333.82 3510.89,2317.67 3532.73,2357.65 3473.60,2390.76"/>
    <poly id="165694631#1" type="sport.tennis" color="79,230,125" fill="1" layer="-2.00" shape="3473.60,2390.76 3467.95,2386.00 3442.25,2337.59 3470.95,2321.15 3477.99,2333.82 3510.89,2317.67 3532.73,2357.65 3473.60,2390.76"/>
    <poly id="165699325" type="building.yes" color="255,230,230" fill="1" layer="-1.00" shape="3666.06,2855.04 3663.83,2891.34 3631.62,2891.18 3633.18,2853.98 3666.06,2855.04"/>
    <poly id="165699325#1" type="tourism.guest_house" color="207,245,201" fill="1" layer="-2.00" shape="3666.06,2855.04 3663.83,2891.34 3631.62,2891.18 3633.18,2853.98 3666.06,2855.04"/>
    <poly id="165699326" type="building.yes" color="255,230,230" fill="1" layer="-1.00" shape="3671.66,2800.40 3703.85,2802.56 3699.79,2841.31 3668.50,2839.15 3671.66,2800.40"/>
    <poly id="165699326#1" type="tourism.guest_house" color="207,245,201" fill="1" layer="-2.00" shape="3671.66,2800.40 3703.85,2802.56 3699.79,2841.31 3668.50,2839.15 3671.66,2800.40"/>
    <poly id="165699327" type="tourism.guest_house" color="207,245,201" fill="1" layer="-2.00" shape="3619.36,2727.12 3611.60,2754.39 3634.07,2759.81 3641.82,2733.00 3619.36,2727.12"/>
    <poly id="165699328" type="amenity.parking" color="184,184,179" fill="1" layer="-1.00" shape="3475.83,2570.38 3480.23,2554.40 3474.21,2525.30 3469.20,2524.59 3457.55,2565.38 3466.36,2567.98 3475.83,2570.38"/>
    <poly id="165713639" type="landuse.forest" color="140,196,107" fill="1" layer="-3.00" shape="2552.32,2342.35 2557.97,2311.63 2576.74,2272.54 2607.60,2244.94 2646.89,2226.77 2667.72,2220.53 2698.69,2218.46 2743.38,2225.87 2785.03,2249.46 2763.17,2282.91 2776.73,2304.02 2838.75,2355.03 2897.99,2406.78 2936.77,2466.39 2977.31,2515.89 2989.39,2561.82 2991.93,2622.62 3007.32,2698.98 3062.27,2734.07 3088.96,2748.97 3111.68,2754.91 3154.23,2771.61 3053.43,2757.86 3025.98,2739.31 3012.63,2731.87 2990.22,2733.22 2960.31,2681.42 2957.27,2628.29 2945.54,2586.84 2942.28,2551.94 2920.65,2522.52 2878.30,2523.24 2855.01,2495.81 2823.07,2443.17 2780.30,2412.68 2761.79,2362.27 2735.96,2352.22 2688.15,2295.61 2673.09,2300.64 2668.02,2299.54 2626.96,2329.86 2552.32,2342.35"/>
    <poly id="166553605" type="amenity.university" color="237,199,199" fill="1" layer="-1.00" shape="3345.11,2505.83 3361.68,2509.38 3365.54,2494.73 3348.65,2492.38 3345.11,2505.83"/>
    <poly id="166553606" type="building.yes" color="255,230,230" fill="1" layer="-1.00" shape="3283.26,2486.37 3296.30,2488.54 3296.26,2491.67 3283.19,2489.37 3283.26,2486.37"/>
    <poly id="166553607" type="building.yes" color="255,230,230" fill="1" layer="-1.00" shape="3294.37,2502.78 3296.26,2491.67 3296.30,2488.54 3341.83,2496.91 3338.90,2510.35 3294.37,2502.78"/>
    <poly id="166553608" type="building.yes" color="255,230,230" fill="1" layer="-1.00" shape="3267.48,2512.87 3281.33,2512.73 3283.19,2489.37 3283.26,2486.37 3269.02,2485.62 3267.48,2512.87"/>
    <poly id="166553610" type="amenity.parking" color="184,184,179" fill="1" layer="-1.00" shape="3238.02,2531.11 3249.76,2531.83 3254.71,2459.87 3262.17,2460.10 3265.11,2426.39 3243.75,2421.43 3238.02,2531.11"/>
    <poly id="166554727" type="amenity.parking" color="184,184,179" fill="1" layer="-1.00" shape="3088.25,2275.85 3101.91,2284.22 3132.22,2278.38 3150.57,2234.41 3139.29,2228.15 3160.67,2173.88 3121.24,2164.71 3105.84,2207.43 3096.10,2207.97 3078.59,2264.53 3088.25,2275.85"/>
    <poly id="166554942" type="amenity.restaurant" color="237,199,199" fill="1" layer="-1.00" shape="2965.42,2469.59 2954.95,2479.83 2966.36,2491.38 2976.81,2481.13 2965.42,2469.59"/>
    <poly id="166554942#1" type="building.yes" color="255,230,230" fill="1" layer="-1.00" shape="2965.42,2469.59 2954.95,2479.83 2966.36,2491.38 2976.81,2481.13 2965.42,2469.59"/>
    <poly id="166554943" type="amenity.library" color="237,199,199" fill="1" layer="-1.00" shape="3269.12,2392.15 3273.41,2345.37 3282.86,2346.22 3285.55,2329.49 3286.14,2321.74 3334.15,2324.04 3328.59,2395.08 3269.12,2392.15"/>
    <poly id="166554943#1" type="building.yes" color="255,230,230" fill="1" layer="-1.00" shape="3269.12,2392.15 3273.41,2345.37 3282.86,2346.22 3285.55,2329.49 3286.14,2321.74 3334.15,2324.04 3328.59,2395.08 3269.12,2392.15"/>
    <poly id="166554944" type="building.yes" color="255,230,230" fill="1" layer="-1.00" shape="3035.60,2574.13 3047.35,2543.34 3027.28,2535.73 3015.51,2566.52 3035.60,2574.13"/>
    <poly id="166554945" type="building.yes" color="255,230,230" fill="1" layer="-1.00" shape="3060.98,2583.92 3068.31,2563.88 3047.05,2556.18 3039.72,2576.21 3060.98,2583.92"/>
    <poly id="166554946" type="building.yes" color="255,230,230" fill="1" layer="-1.00" shape="3186.87,2601.05 3171.14,2594.08 3146.39,2659.44 3161.86,2664.78 3186.87,2601.05"/>
    <poly id="166554947" type="building.university" color="255,230,230" fill="1" layer="-1.00" shape="3068.53,2406.75 3155.87,2431.30 3152.99,2442.92 3065.64,2419.84 3068.53,2406.75"/>
    <poly id="166554948" type="building.university" color="255,230,230" fill="1" layer="-1.00" shape="3053.04,2446.04 3099.51,2460.87 3094.12,2475.42 3122.89,2483.69 3135.26,2447.42 3060.36,2423.86 3053.04,2446.04"/>
    <poly id="166554949" type="building.university" color="255,230,230" fill="1" layer="-1.00" shape="3132.54,2489.01 3167.80,2495.86 3177.00,2455.34 3143.70,2449.25 3132.54,2489.01"/>
    <poly id="166554950" type="building.university" color="255,230,230" fill="1" layer="-1.00" shape="3184.70,2477.23 3188.18,2456.96 3220.48,2460.81 3217.51,2480.84 3184.70,2477.23"/>
    <poly id="166554951" type="building.university" color="255,230,230" fill="1" layer="-1.00" shape="3181.17,2501.72 3183.87,2484.17 3216.18,2488.26 3212.99,2505.31 3181.17,2501.72"/>
    <poly id="166554952" type="building.yes" color="255,230,230" fill="1" layer="-1.00" shape="3094.89,2619.00 3065.59,2609.23 3082.19,2559.89 3111.49,2569.66 3094.89,2619.00"/>
    <poly id="166554953" type="building.university" color="255,230,230" fill="1" layer="-1.00" shape="3117.92,2525.25 3128.66,2501.10 3091.50,2485.80 3078.76,2511.17 3117.92,2525.25"/>
    <poly id="166554954" type="building.university" color="255,230,230" fill="1" layer="-1.00" shape="3133.50,2513.05 3138.10,2502.46 3146.78,2506.02 3142.67,2516.63 3133.50,2513.05"/>
    <poly id="166554955" type="building.university" color="255,230,230" fill="1" layer="-1.00" shape="3126.33,2529.57 3131.95,2517.49 3140.38,2520.82 3135.01,2532.64 3126.33,2529.57"/>
    <poly id="166554956" type="building.university" color="255,230,230" fill="1" layer="-1.00" shape="3142.47,2533.23 3144.71,2525.07 3149.19,2526.62 3147.18,2534.77 3142.47,2533.23"/>
    <poly id="166554957" type="building.university" color="255,230,230" fill="1" layer="-1.00" shape="3157.87,2536.62 3162.66,2509.43 3209.61,2518.40 3205.83,2542.89 3157.87,2536.62"/>
    <poly id="166554958" type="building.university" color="255,230,230" fill="1" layer="-1.00" shape="3065.90,2504.32 3039.21,2487.41 3051.88,2468.48 3078.33,2484.65 3065.90,2504.32"/>
    <poly id="166554959" type="building.yes" color="255,230,230" fill="1" layer="-1.00" shape="3050.88,2623.46 3062.09,2590.16 3038.67,2582.34 3027.46,2615.64 3050.88,2623.46"/>
    <poly id="166554960" type="building.yes" color="255,230,230" fill="1" layer="-1.00" shape="3163.99,2591.45 3134.56,2579.78 3104.00,2656.21 3133.43,2667.87 3163.99,2591.45"/>
    <poly id="166554965" type="amenity.motorcycle_parking" color="237,199,199" fill="1" layer="-1.00" shape="2930.46,2419.17 2941.38,2427.86 2943.05,2433.21 2945.52,2440.23 2948.30,2445.00 2952.34,2449.22 2955.55,2453.80 2964.94,2467.29 2955.25,2477.09 2947.61,2468.87 2941.14,2458.95 2936.30,2447.24 2929.73,2435.29 2925.01,2423.33 2930.46,2419.17"/>
    <poly id="166554966" type="aeroway.helipad" color="grey" fill="1" layer="-2.00" shape="2993.81,2499.17 2996.82,2498.82 2999.79,2499.44 3002.41,2500.97 3004.38,2503.26 3005.57,2506.18 3005.70,2509.32 3004.78,2512.32 3002.91,2514.85 3000.30,2516.62 2997.26,2517.44 2994.11,2517.19 2991.22,2515.92 2988.99,2513.87 2987.55,2511.21 2987.03,2508.23 2987.49,2505.24 2988.88,2502.57 2991.06,2500.46 2993.81,2499.17"/>
    <poly id="166554967" type="amenity.parking" color="184,184,179" fill="1" layer="-1.00" shape="2837.01,2315.31 2862.42,2338.19 2889.80,2369.58 2910.73,2392.85 2919.40,2409.45 2907.74,2418.13 2894.05,2401.86 2889.88,2396.44 2881.15,2384.06 2862.09,2366.57 2845.65,2355.26 2830.38,2341.65 2817.94,2334.28 2829.28,2321.33 2837.01,2315.31"/>
    <poly id="166554969" type="amenity.motorcycle_parking" color="237,199,199" fill="1" layer="-1.00" shape="2874.47,2213.09 2858.33,2235.64 2818.02,2208.74 2832.91,2188.12 2874.47,2213.09"/>
    <poly id="166554970" type="amenity.motorcycle_parking" color="237,199,199" fill="1" layer="-1.00" shape="3097.89,2623.69 3093.92,2634.08 3105.33,2638.39 3109.30,2628.00 3097.89,2623.69"/>
    <poly id="166554971" type="amenity.parking" color="184,184,179" fill="1" layer="-1.00" shape="3099.64,2618.96 3112.93,2623.98 3130.66,2577.52 3117.37,2572.49 3099.64,2618.96"/>
    <poly id="166554972" type="amenity.parking" color="184,184,179" fill="1" layer="-1.00" shape="2835.73,2266.12 2797.83,2238.16 2816.07,2210.67 2855.93,2237.58 2835.73,2266.12"/>
    <poly id="166554973" type="amenity.parking" color="184,184,179" fill="1" layer="-1.00" shape="3141.87,2302.12 3129.15,2295.20 3131.59,2283.56 3136.67,2281.18 3147.69,2282.39 3142.51,2293.56 3141.68,2295.35 3141.87,2302.12"/>
    <poly id="166555230" type="amenity.parking" color="184,184,179" fill="1" layer="-1.00" shape="3148.15,2664.54 3121.00,2699.02 3040.04,2675.03 3025.48,2645.18 3030.37,2623.23 3048.82,2628.05 3058.82,2608.21 3085.96,2618.25 3107.57,2573.98 3128.06,2579.86 3109.65,2658.45 3148.15,2664.54"/>
    <poly id="166555231" type="amenity.motorcycle_parking" color="237,199,199" fill="1" layer="-1.00" shape="3351.64,2581.78 3406.03,2591.13 3476.04,2627.77 3512.46,2656.61 3504.85,2669.82 3489.99,2665.81 3480.41,2671.58 3460.46,2662.39 3454.31,2660.27 3458.54,2651.36 3458.15,2640.10 3436.15,2631.65 3383.46,2608.51 3363.58,2593.43 3347.15,2591.45 3343.33,2588.08 3342.16,2578.85 3351.64,2581.78"/>
    <poly id="166555232" type="amenity.motorcycle_parking" color="237,199,199" fill="1" layer="-1.00" shape="3289.73,2430.71 3314.13,2434.70 3307.77,2461.58 3285.74,2459.39 3289.73,2430.71"/>
    <poly id="166555233" type="amenity.parking" color="184,184,179" fill="1" layer="-1.00" shape="3619.40,2664.72 3653.68,2678.94 3657.43,2687.44 3651.55,2707.06 3614.46,2690.77 3619.40,2664.72"/>
    <poly id="166555234" type="amenity.parking" color="184,184,179" fill="1" layer="-1.00" shape="3389.41,2621.57 3447.50,2645.03 3448.73,2648.89 3443.99,2658.81 3393.86,2637.24 3387.27,2628.20 3389.41,2621.57"/>
    <poly id="166555235" type="amenity.parking" color="184,184,179" fill="1" layer="-1.00" shape="3572.75,2634.69 3613.18,2651.04 3610.16,2666.87 3600.12,2668.02 3597.40,2659.04 3571.66,2640.31 3572.75,2634.69"/>
    <poly id="166555236" type="amenity.parking" color="184,184,179" fill="1" layer="-1.00" shape="3238.25,2538.86 3335.20,2536.42 3453.58,2548.30 3449.30,2563.09 3362.27,2552.34 3296.67,2554.64 3238.77,2560.10 3238.25,2538.86"/>
    <poly id="166555792" type="landuse.industrial" color="209,209,204" fill="1" layer="-3.00" shape="2567.61,2495.61 2592.60,2508.29 2619.42,2548.83 2597.06,2571.74 2591.56,2573.90 2580.08,2565.70 2544.23,2534.70 2567.61,2495.61"/>
    <poly id="166555793" type="building.university" color="255,230,230" fill="1" layer="-1.00" shape="2251.89,2753.73 2255.48,2742.91 2271.99,2697.89 2311.31,2707.92 2293.43,2766.84 2251.89,2753.73"/>
    <poly id="166555802" type="amenity.parking_space" color="237,199,199" fill="1" layer="-1.00" shape="2383.96,2804.63 2376.36,2831.37 2405.00,2848.81 2426.13,2811.06 2390.15,2785.56 2386.04,2792.97 2383.96,2804.63"/>
    <poly id="166556131" type="amenity.restaurant" color="237,199,199" fill="1" layer="-1.00" shape="2914.53,2199.37 2921.79,2195.98 2928.31,2192.60 2934.06,2189.94 2938.32,2188.13 2942.56,2187.43 2948.03,2187.75 2952.62,2189.04 2957.95,2190.84 2961.40,2193.11 2963.28,2195.48 2965.32,2198.98 2965.65,2201.06 2967.00,2203.95 2967.63,2208.69 2968.27,2214.23 2968.57,2218.56 2969.38,2223.23 2969.66,2228.77 2962.27,2237.32 2932.96,2215.56 2914.53,2199.37"/>
    <poly id="166556131#1" type="building.yes" color="255,230,230" fill="1" layer="-1.00" shape="2914.53,2199.37 2921.79,2195.98 2928.31,2192.60 2934.06,2189.94 2938.32,2188.13 2942.56,2187.43 2948.03,2187.75 2952.62,2189.04 2957.95,2190.84 2961.40,2193.11 2963.28,2195.48 2965.32,2198.98 2965.65,2201.06 2967.00,2203.95 2967.63,2208.69 2968.27,2214.23 2968.57,2218.56 2969.38,2223.23 2969.66,2228.77 2962.27,2237.32 2932.96,2215.56 2914.53,2199.37"/>
    <poly id="166556132" type="amenity.university" color="237,199,199" fill="1" layer="-1.00" shape="2831.70,2310.59 2815.08,2332.40 2777.60,2302.98 2800.63,2277.43 2812.43,2286.68 2811.51,2291.94 2831.70,2310.59"/>
    <poly id="166556132#1" type="building.yes" color="255,230,230" fill="1" layer="-1.00" shape="2831.70,2310.59 2815.08,2332.40 2777.60,2302.98 2800.63,2277.43 2812.43,2286.68 2811.51,2291.94 2831.70,2310.59"/>
    <poly id="166556363" type="amenity.restaurant" color="237,199,199" fill="1" layer="-1.00" shape="3555.08,2486.03 3561.96,2461.72 3516.30,2444.58 3508.86,2471.13 3549.88,2484.36 3555.08,2486.03"/>
    <poly id="166556363#1" type="building.yes" color="255,230,230" fill="1" layer="-1.00" shape="3555.08,2486.03 3561.96,2461.72 3516.30,2444.58 3508.86,2471.13 3549.88,2484.36 3555.08,2486.03"/>
    <poly id="166558341" type="leisure.pitch" color="207,245,201" fill="1" layer="-2.00" shape="2359.33,2800.01 2351.41,2796.71 2248.51,2765.73 2219.04,2761.37 2194.52,2757.75 2154.52,2782.18 2133.24,2826.79 2127.93,2995.09 2224.67,3000.52 2263.76,3007.60 2293.68,3010.95 2345.08,3001.83 2344.77,2966.29 2342.86,2922.03 2344.53,2877.97 2347.12,2855.95 2350.25,2837.44 2359.33,2800.01"/>
    <poly id="166559478" type="building.yes" color="255,230,230" fill="1" layer="-1.00" shape="3311.27,2582.72 3314.78,2611.62 3277.24,2616.16 3272.82,2586.67 3311.27,2582.72"/>
    <poly id="166559841" type="building.yes" color="255,230,230" fill="1" layer="-1.00" shape="3208.21,2619.02 3208.47,2597.01 3258.81,2597.61 3258.58,2617.60 3208.21,2619.02"/>
    <poly id="166560012" type="amenity.parking" color="184,184,179" fill="1" layer="-1.00" shape="2451.14,2534.60 2441.28,2528.99 2429.46,2520.48 2431.39,2515.46 2451.95,2460.42 2471.30,2468.75 2487.18,2475.56 2511.75,2437.31 2519.59,2440.01 2521.06,2471.99 2515.34,2493.23 2482.13,2480.95 2451.14,2534.60"/>
    <poly id="166560013" type="amenity.parking" color="184,184,179" fill="1" layer="-1.00" shape="2484.62,2614.26 2510.68,2603.25 2522.47,2629.78 2532.57,2652.80 2532.41,2652.09 2551.33,2692.21 2537.13,2709.74 2484.62,2614.26"/>
    <poly id="167423390" type="building.yes" color="255,230,230" fill="1" layer="-1.00" shape="3071.29,2387.84 3059.84,2384.01 3032.10,2375.37 3013.27,2366.84 2969.76,2344.11 2979.25,2325.50 3039.62,2351.62 3035.62,2360.45 3060.58,2369.06 3076.70,2371.47 3071.29,2387.84"/>
    <poly id="167423391" type="building.yes" color="255,230,230" fill="1" layer="-1.00" shape="2911.88,2275.30 2932.82,2246.72 2948.82,2259.65 2964.28,2270.37 2976.41,2277.13 2982.55,2280.57 3001.90,2292.43 3021.84,2300.98 3039.01,2308.94 3055.10,2314.12 3047.10,2331.21 3040.17,2349.58 2994.73,2329.65 2979.66,2322.03 2949.94,2304.24 2929.04,2290.86 2910.48,2277.51 2911.88,2275.30"/>
    <poly id="167423392" type="building.yes" color="255,230,230" fill="1" layer="-1.00" shape="3061.93,2294.57 3022.05,2277.75 3026.93,2264.68 3044.52,2272.07 3044.19,2274.32 3047.22,2275.57 3053.88,2259.05 3071.71,2266.44 3061.93,2294.57"/>
    <poly id="167423918" type="building.yes" color="255,230,230" fill="1" layer="-1.00" shape="3094.33,2333.60 3104.68,2299.78 3122.05,2304.70 3120.76,2308.40 3172.75,2326.86 3160.00,2357.66 3094.33,2333.60"/>
    <poly id="167428484" type="building.yes" color="255,230,230" fill="1" layer="-1.00" shape="2894.91,2304.38 2960.13,2345.61 2973.74,2325.25 2909.06,2284.87 2894.91,2304.38"/>
    <poly id="167428490" type="building.yes" color="255,230,230" fill="1" layer="-1.00" shape="3011.55,2400.53 3022.35,2381.53 2960.38,2348.66 2928.30,2329.71 2885.49,2300.39 2878.69,2310.56 2882.56,2313.10 2881.71,2314.20 2886.06,2317.03 2885.07,2318.32 2891.42,2322.70 2890.22,2324.42 2897.19,2329.00 2896.00,2330.37 2914.23,2342.51 2912.16,2345.66 2961.11,2374.09 3011.55,2400.53"/>