<!-- Taisho-Dori (Akasaka_01), Akasaka (Akasaka_02) -->

<flows>
    <!-- 07:00- -->
    <interval begin="25200" end="28799">
        <flow id="TaishoDori_IntoB_0700" from="210342326#0" number="1719" />
        
        <flow id="Akasaka_C_0700" from="41720513#5" number="860" />
        <flow id="Akasaka_D_0700" from="374632640#0" number="573" />
    </interval>

    <!-- 08:00 -->
    <interval begin="28800" end="32399">
        <flow id="TaishoDori_IntoB_0800" from="210342326#0" number="1595" />
        
        <flow id="Akasaka_C_0800" from="41720513#5" number="929" />
        <flow id="Akasaka_D_0800" from="374632640#0" number="645" />
    </interval>

    <!-- 09:00 -->
    <interval begin="32400" end="35999">
        <flow id="TaishoDori_IntoB_0900" from="210342326#0" number="1382" />
        
        <flow id="Akasaka_C_0900" from="41720513#5" number="868" />
        <flow id="Akasaka_D_0900" from="374632640#0" number="507" />
    </interval>

    <!-- 10:00 -->
    <interval begin="36000" end="39599">
        <flow id="TaishoDori_IntoB_1000" from="210342326#0" number="1212" />
        
        <flow id="Akasaka_C_1000" from="41720513#5" number="799" />
        <flow id="Akasaka_D_1000" from="374632640#0" number="569" />
    </interval>

    <!-- 11:00 -->
    <interval begin="39600" end="43199">
        <flow id="TaishoDori_IntoB_1100" from="210342326#0" number="1169" />
        
        <flow id="Akasaka_C_1100" from="41720513#5" number="848" />
        <flow id="Akasaka_D_1100" from="374632640#0" number="541" />
    </interval>

    <!-- 12:00 -->
    <interval begin="43200" end="46799">
        <flow id="TaishoDori_IntoB_1200" from="210342326#0" number="1096" />
        
        <flow id="Akasaka_C_1200" from="41720513#5" number="768" />
        <flow id="Akasaka_D_1200" from="374632640#0" number="491" />
    </interval>

    <!-- 13:00 -->
    <interval begin="46800" end="50399">
        <flow id="TaishoDori_IntoB_1300" from="210342326#0" number="1089" />
        
        <flow id="Akasaka_C_1300" from="41720513#5" number="831" />
        <flow id="Akasaka_D_1300" from="374632640#0" number="530" />
    </interval>

    <!-- 14:00 -->
    <interval begin="50400" end="53999">
        <flow id="TaishoDori_IntoB_1400" from="210342326#0" number="1155" />
        
        <flow id="Akasaka_C_1400" from="41720513#5" number="848" />
        <flow id="Akasaka_D_1400" from="374632640#0" number="467" />
    </interval>

    <!-- 15:00 -->
    <interval begin="54000" end="57599">
        <flow id="TaishoDori_IntoB_1500" from="210342326#0" number="1129" />
        
        <flow id="Akasaka_C_1500" from="41720513#5" number="759" />
        <flow id="Akasaka_D_1500" from="374632640#0" number="516" />
    </interval>

    <!-- 16:00 -->
    <interval begin="57600" end="61199">
        <flow id="TaishoDori_IntoB_1600" from="210342326#0" number="1196" />
        
        <flow id="Akasaka_C_1600" from="41720513#5" number="813" />
        <flow id="Akasaka_D_1600" from="374632640#0" number="512" />
    </interval>

    <!-- 17:00 -->
    <interval begin="61200" end="64799">
        <flow id="TaishoDori_IntoB_1700" from="210342326#0" number="1076" />
        
        <flow id="Akasaka_C_1700" from="41720513#5" number="702" />
        <flow id="Akasaka_D_1700" from="374632640#0" number="499" />
    </interval>

    <!-- 18:00 -->
    <interval begin="64800" end="68399">
        <flow id="TaishoDori_IntoB_1800" from="210342326#0" number="1025" />
        
        <flow id="Akasaka_C_1800" from="41720513#5" number="746" />
        <flow id="Akasaka_D_1800" from="374632640#0" number="416" />
    </interval>

</flows>

