<!-- Tenjin-01 (Tenjin), Tenjin-02 (Tenjin Bashi Guchi) -->

<flows>
    <!-- 07:00- -->
    <interval begin="25200" end="28799">
        <!-- <flow id="Tenjin_A_0700" from="374632640#12" number="590" /> -->
        <!-- <flow id="Tenjin_C_0700" from="-258878959#0" number="334" /> -->
        <flow id="Tenjin_D_0700" from="366459037#2" number="1311" />

        <!-- <flow id="TenjinBashiGuchi_A_0700" from="-219765" number="1426" /> -->
        <flow id="TenjinBashiGuchi_B_0700" from="175081037#1" number="854" />
        <!-- <flow id="TenjinBashiGuchi_C_0700" from="341760062#1" number="822" /> -->
    </interval>

    <!-- 08:00 -->
    <interval begin="28800" end="32399">
        <!-- <flow id="Tenjin_A_0800" from="374632640#12" number="678" /> -->
        <!-- <flow id="Tenjin_C_0800" from="-258878959#0" number="452" /> -->
        <flow id="Tenjin_D_0800" from="366459037#2" number="1178" />

        <!-- <flow id="TenjinBashiGuchi_A_0800" from="-219765" number="1536" /> -->
        <flow id="TenjinBashiGuchi_B_0800" from="175081037#1" number="1134" />
        <!-- <flow id="TenjinBashiGuchi_C_0800" from="341760062#1" number="1037" /> -->
    </interval>

    <!-- 09:00 -->
    <interval begin="32400" end="35999">
        <!-- <flow id="Tenjin_A_0900" from="374632640#12" number="553" /> -->
        <!-- <flow id="Tenjin_C_0900" from="-258878959#0" number="599" /> -->
        <flow id="Tenjin_D_0900" from="366459037#2" number="1185" />

        <!-- <flow id="TenjinBashiGuchi_A_0900" from="-219765" number="1346" /> -->
        <flow id="TenjinBashiGuchi_B_0900" from="175081037#1" number="1141" />
        <!-- <flow id="TenjinBashiGuchi_C_0900" from="341760062#1" number="1208" /> -->
    </interval>

    <!-- 10:00 -->
    <interval begin="36000" end="39599">
        <!-- <flow id="Tenjin_A_1000" from="374632640#12" number="554" /> -->
        <!-- <flow id="Tenjin_C_1000" from="-258878959#0" number="626" /> -->
        <flow id="Tenjin_D_1000" from="366459037#2" number="1214" />

        <!-- <flow id="TenjinBashiGuchi_A_1000" from="-219765" number="1270" /> -->
        <flow id="TenjinBashiGuchi_B_1000" from="175081037#1" number="976" />
        <!-- <flow id="TenjinBashiGuchi_C_1000" from="341760062#1" number="1283" /> -->
    </interval>

    <!-- 11:00 -->
    <interval begin="39600" end="43199">
        <!-- <flow id="Tenjin_A_1100" from="374632640#12" number="569" /> -->
        <!-- <flow id="Tenjin_C_1100" from="-258878959#0" number="597" /> -->
        <flow id="Tenjin_D_1100" from="366459037#2" number="1201" />

        <!-- <flow id="TenjinBashiGuchi_A_1100" from="-219765" number="1224" /> -->
        <flow id="TenjinBashiGuchi_B_1100" from="175081037#1" number="1010" />
        <!-- <flow id="TenjinBashiGuchi_C_1100" from="341760062#1" number="1258" /> -->
    </interval>

    <!-- 12:00 -->
    <interval begin="43200" end="46799">
    	<!-- <flow id="Tenjin_A_1200" from="374632640#12" number="519" /> -->
        <!-- <flow id="Tenjin_C_1200" from="-258878959#0" number="652" /> -->
        <flow id="Tenjin_D_1200" from="366459037#2" number="1092" />

    	<!-- <flow id="TenjinBashiGuchi_A_1200" from="-219765" number="1216" /> -->
        <flow id="TenjinBashiGuchi_B_1200" from="175081037#1" number="1038" />
        <!-- <flow id="TenjinBashiGuchi_C_1200" from="341760062#1" number="1116" /> -->
    </interval>

    <!-- 13:00 -->
    <interval begin="46800" end="50399">
        <!-- <flow id="Tenjin_A_1300" from="374632640#12" number="590" /> -->
        <!-- <flow id="Tenjin_C_1300" from="-258878959#0" number="698" /> -->
        <flow id="Tenjin_D_1300" from="366459037#2" number="1246" />

        <!-- <flow id="TenjinBashiGuchi_A_1300" from="-219765" number="1278" /> -->
        <flow id="TenjinBashiGuchi_B_1300" from="175081037#1" number="1103" />
        <!-- <flow id="TenjinBashiGuchi_C_1300" from="341760062#1" number="1236" /> -->
    </interval>

    <!-- 14:00 -->
    <interval begin="50400" end="53999">
        <!-- <flow id="Tenjin_A_1400" from="374632640#12" number="556" /> -->
        <!-- <flow id="Tenjin_C_1400" from="-258878959#0" number="654" /> -->
        <flow id="Tenjin_D_1400" from="366459037#2" number="1235" />

        <!-- <flow id="TenjinBashiGuchi_A_1400" from="-219765" number="1124" /> -->
        <flow id="TenjinBashiGuchi_B_1400" from="175081037#1" number="1060" />
        <!-- <flow id="TenjinBashiGuchi_C_1400" from="341760062#1" number="1326" /> -->
    </interval>

    <!-- 15:00 -->
    <interval begin="54000" end="57599">
        <!-- <flow id="Tenjin_A_1500" from="374632640#12" number="548" /> -->
        <!-- <flow id="Tenjin_C_1500" from="-258878959#0" number="625" /> -->
        <flow id="Tenjin_D_1500" from="366459037#2" number="1247" />

        <!-- <flow id="TenjinBashiGuchi_A_1500" from="-219765" number="1300" /> -->
        <flow id="TenjinBashiGuchi_B_1500" from="175081037#1" number="1046" />
        <!-- <flow id="TenjinBashiGuchi_C_1500" from="341760062#1" number="1268" /> -->
    </interval>

    <!-- 16:00 -->
    <interval begin="57600" end="61199">
        <!-- <flow id="Tenjin_A_1600" from="374632640#12" number="526" /> -->
        <!-- <flow id="Tenjin_C_1600" from="-258878959#0" number="660" /> -->
        <flow id="Tenjin_D_1600" from="366459037#2" number="1203" />

        <!-- <flow id="TenjinBashiGuchi_A_1600" from="-219765" number="1241" /> -->
        <flow id="TenjinBashiGuchi_B_1600" from="175081037#1" number="1121" />
        <!-- <flow id="TenjinBashiGuchi_C_1600" from="341760062#1" number="1284" /> -->
    </interval>

    <!-- 17:00 -->
    <interval begin="61200" end="64799">
        <!-- <flow id="Tenjin_A_1700" from="374632640#12" number="523" /> -->
        <!-- <flow id="Tenjin_C_1700" from="-258878959#0" number="633" /> -->
        <flow id="Tenjin_D_1700" from="366459037#2" number="1157" />

        <!-- <flow id="TenjinBashiGuchi_A_1700" from="-219765" number="1139" /> -->
        <flow id="TenjinBashiGuchi_B_1700" from="175081037#1" number="1185" />
        <!-- <flow id="TenjinBashiGuchi_C_1700" from="341760062#1" number="1397" /> -->
    </interval>

    <!-- 18:00 -->
    <interval begin="64800" end="68399">
        <!-- <flow id="Tenjin_A_1800" from="374632640#12" number="512" /> -->
        <!-- <flow id="Tenjin_C_1800" from="-258878959#0" number="669" /> -->
        <flow id="Tenjin_D_1800" from="366459037#2" number="1158" />

        <!-- <flow id="TenjinBashiGuchi_A_1800" from="-219765" number="1154" /> -->
        <flow id="TenjinBashiGuchi_B_1800" from="175081037#1" number="1115" />
        <!-- <flow id="TenjinBashiGuchi_C_1800" from="341760062#1" number="1469" /> -->
    </interval>
</flows>