<?xml version="1.0" encoding="UTF-8"?>

<!-- generated on Sat Nov 10 22:38:09 2018 by SUMO polyconvert Version 0.29.0
<?xml version="1.0" encoding="UTF-8"?>

<configuration xmlns:xsi="http://www.w3.org/2001/XMLSchema-instance" xsi:noNamespaceSchemaLocation="http://sumo.dlr.de/xsd/polyconvertConfiguration.xsd">

    <input>
        <net-file value="/Users/fujii/sumo/tools/2018-11-10-22-37-57/osm.net.xml"/>
        <osm-files value="osm_bbox.osm.xml"/>
        <osm.keep-full-type value="true"/>
        <type-file value="/Users/fujii/sumo/data/typemap/osmPolyconvert.typ.xml"/>
    </input>

    <output>
        <output-file value="/Users/fujii/sumo/tools/2018-11-10-22-37-57/osm.poly.xml"/>
    </output>

    <processing>
        <poi-layer-offset value="5"/>
    </processing>

    <report>
        <verbose value="true"/>
    </report>

</configuration>
-->

<additional xmlns:xsi="http://www.w3.org/2001/XMLSchema-instance" xsi:noNamespaceSchemaLocation="http://sumo.dlr.de/xsd/additional_file.xsd">
    <location netOffset="-609901.35,-3714757.23" convBoundary="0.00,-6657.31,10109.12,8104.49" origBoundary="130.184271,33.506390,130.292266,33.639796" projParameter="+proj=utm +zone=52 +ellps=WGS84 +datum=WGS84 +units=m +no_defs"/>

    <poly id="100012599" type="amenity.parking" color="184,184,179" fill="1" layer="-1.00" shape="3371.48,3564.04 3442.95,3594.75 3461.90,3551.07 3448.12,3545.46 3390.22,3521.88 3380.51,3543.71 3371.48,3564.04"/>
    <poly id="100017226" type="building.yes" color="255,230,230" fill="1" layer="-1.00" shape="3071.29,3269.40 3076.70,3253.03 3090.17,3229.24 3123.80,3241.60 3157.17,3252.36 3195.78,3259.48 3202.01,3260.03 3205.25,3260.32 3229.61,3262.48 3227.64,3270.97 3233.76,3269.94 3232.76,3302.33 3221.08,3301.32 3205.35,3299.96 3170.08,3293.26 3136.67,3286.57 3108.49,3278.09 3071.29,3269.40"/>
    <poly id="100017898" type="building.yes" color="255,230,230" fill="1" layer="-1.00" shape="5102.15,1872.86 5106.04,1863.68 5128.42,1872.40 5125.01,1881.91 5102.15,1872.86"/>
    <poly id="100111869" type="landuse.forest" color="140,196,107" fill="1" layer="-3.00" shape="3447.41,3725.35 3441.48,3720.99 3435.90,3715.97 3430.65,3710.28 3424.11,3701.94 3425.17,3696.01 3424.31,3685.10 3425.40,3677.19 3425.84,3667.61 3427.26,3660.35 3426.02,3652.41 3422.81,3643.12 3418.51,3641.75 3413.18,3643.33 3410.23,3640.32 3413.93,3636.07 3414.97,3632.12 3414.37,3627.15 3416.73,3623.55 3420.04,3624.25 3422.33,3626.92 3425.03,3624.31 3423.76,3619.33 3426.12,3615.73 3432.67,3623.41 3438.30,3624.46 3438.67,3621.16 3436.39,3617.51 3432.12,3614.15 3424.52,3610.43 3418.25,3607.38 3409.00,3604.30 3401.37,3602.88 3395.08,3601.82 3389.43,3601.75 3384.78,3602.03 3385.50,3597.73 3389.84,3595.48 3395.17,3593.89 3402.82,3592.98 3413.75,3595.76 3425.95,3601.52 3437.50,3607.61 3443.41,3613.62 3450.60,3623.29 3453.69,3614.41 3454.10,3607.80 3452.89,3598.21 3453.31,3590.61 3451.72,3584.31 3458.86,3570.52 3466.21,3565.98 3468.17,3568.98 3468.76,3574.93 3485.76,3569.84 3480.70,3576.39 3481.30,3582.35 3488.28,3581.44 3495.59,3580.54 3499.22,3582.23 3500.94,3576.63 3504.99,3571.39 3512.58,3575.11 3515.21,3577.46 3520.47,3581.82 3523.74,3585.49 3532.47,3577.67 3537.43,3579.38 3547.64,3585.77 3555.18,3594.13 3558.84,3593.17 3563.73,3601.17 3563.99,3607.77 3583.37,3624.52 3593.88,3634.23 3601.54,3632.34 3609.13,3636.73 3614.67,3644.72 3615.94,3650.03 3614.86,3657.28 3614.11,3664.21 3622.31,3672.24 3624.41,3677.06 3608.65,3704.13 3605.10,3707.69 3598.36,3711.76 3595.49,3715.12 3590.18,3723.44 3586.55,3727.41 3582.44,3732.06 3580.91,3735.73 3579.23,3738.00 3577.35,3740.03 3575.28,3742.01 3574.19,3743.36 3573.60,3743.63 3570.61,3746.42 3569.01,3747.53 3565.83,3749.69 3562.47,3750.76 3558.55,3752.58 3556.62,3753.42 3553.88,3754.63 3550.49,3755.10 3547.04,3757.76 3541.17,3758.18 3528.29,3762.89 3525.15,3765.79 3522.26,3767.06 3519.93,3767.11 3515.04,3769.62 3510.82,3769.90 3506.03,3773.25 3501.04,3774.26 3495.29,3773.84 3486.41,3767.78 3479.52,3760.43 3482.25,3754.19 3484.96,3749.58 3489.65,3745.35 3494.07,3737.80 3489.56,3725.85 3485.02,3716.88 3479.41,3713.83 3475.04,3718.74 3470.03,3720.66 3462.38,3721.57 3457.08,3721.17 3451.73,3724.42 3447.41,3725.35"/>
    <poly id="101185918" type="landuse.forest" color="140,196,107" fill="1" layer="-3.00" shape="3185.36,3662.50 3181.30,3652.07 3176.13,3648.90 3173.12,3638.48 3165.34,3634.76 3167.56,3623.89 3174.43,3615.66 3165.66,3607.25 3171.00,3597.46 3181.45,3595.51 3187.81,3586.75 3188.43,3577.95 3179.61,3574.73 3185.45,3565.45 3188.17,3555.62 3189.80,3550.45 3185.21,3542.09 3190.00,3533.33 3195.27,3529.23 3203.84,3509.62 3212.08,3518.54 3226.36,3501.57 3254.50,3502.95 3258.59,3509.22 3252.67,3525.24 3257.30,3530.48 3261.03,3523.26 3279.22,3529.19 3291.80,3523.11 3312.63,3525.95 3334.01,3525.68 3347.63,3520.65 3367.60,3507.40 3373.61,3527.71 3382.53,3523.14 3380.51,3543.71 3362.78,3561.84 3361.98,3585.69 3363.44,3594.54 3385.50,3597.73 3384.78,3602.03 3377.15,3626.36 3369.75,3634.06 3355.87,3617.80 3350.03,3626.04 3334.43,3622.22 3327.14,3621.62 3330.86,3615.43 3320.99,3612.20 3319.36,3618.41 3305.73,3624.47 3297.33,3629.05 3297.76,3637.35 3295.57,3645.63 3282.98,3652.24 3272.09,3646.92 3263.23,3647.33 3256.31,3658.67 3242.30,3652.79 3231.30,3656.82 3216.78,3650.42 3205.23,3657.02 3197.39,3658.50 3185.36,3662.50"/>
    <poly id="101290805" type="landuse.forest" color="140,196,107" fill="1" layer="-3.00" shape="3665.63,3932.91 3657.89,3913.81 3662.86,3898.03 3653.78,3858.34 3676.08,3855.43 3684.46,3820.68 3700.67,3795.54 3727.98,3773.68 3725.06,3751.48 3746.04,3726.39 3777.90,3723.59 3806.05,3765.10 3822.84,3825.49 3841.88,3830.47 3852.77,3851.19 3838.21,3871.61 3819.07,3874.54 3794.97,3894.85 3804.36,3907.63 3836.12,3912.76 3892.17,3883.33 3901.40,3910.36 3893.17,3932.44 3929.06,3993.05 3884.27,4013.10 3848.88,4044.37 3813.83,4048.70 3774.13,4041.90 3739.39,4019.32 3706.45,3979.33 3665.63,3932.91"/>
    <poly id="130967693" type="natural.coastline" color="140,196,107" fill="0" layer="-4.00" shape="7476.71,3107.88 7478.27,3124.76 7486.87,3157.47 7469.25,3171.89 7462.91,3135.96 7442.62,3112.15 7413.68,3095.09 7351.45,3086.26 7314.07,3077.18 7071.65,3074.42 7056.73,3061.93 7045.73,2762.48 6684.08,3040.80 6245.17,3383.05 5751.68,3203.60 5697.11,3222.57 5636.34,3243.69 5768.49,3409.59 5938.44,3622.94 5935.04,3673.53 6901.35,3965.80 7128.79,3978.62 7259.70,4053.64 7379.30,3912.50 7417.16,3617.35 7516.37,3556.45 7541.97,3355.39 7531.18,3316.52 7533.34,3312.16 7551.00,3304.63 7557.32,3316.43 7560.05,3330.90 7558.36,3344.98 7541.50,3444.44 7569.26,3470.43 7721.67,3422.65 7731.77,3393.57 7745.27,3399.95 7758.35,3375.60 7740.86,3320.51 7725.72,3325.42 7709.34,3285.17 7726.16,3277.05 7722.68,3245.55 7720.61,3198.88 7708.88,3178.70 7702.43,3145.02 7698.98,3138.99 7691.64,3131.58 7685.09,3128.51 7679.88,3122.24 7672.59,3103.29 7667.30,3095.47 7660.61,3088.73 7653.14,3084.87 7645.13,3072.57 7645.22,3064.81 7650.01,3060.21 7670.09,3049.81 7687.89,3051.58 7692.71,3059.51 7711.67,3087.47 7722.50,3120.10 7729.93,3157.34 7737.97,3160.54 7753.39,3190.01 7762.33,3225.05 7767.35,3254.83 7785.68,3311.61 7793.93,3327.68 7815.45,3350.79 7814.53,3342.46 7817.44,3339.73 7836.72,3356.82 7837.58,3363.04 7902.17,3363.28 7943.24,3359.01 8000.78,3358.83 8011.39,3408.87 8020.14,3467.53 8020.89,3481.95 8034.29,3546.88 8036.03,3556.89 8068.76,3611.52 8076.89,3622.26 8099.83,3643.39 8113.98,3663.09 8121.41,3684.58 8145.27,3782.46 8254.50,4093.73 8262.06,4116.56 8270.61,4131.87 8283.01,4143.67 8327.75,4172.17 8371.15,4205.14 8407.22,4230.53 8431.24,4261.39 8433.77,4295.19 8420.00,4314.65 8410.34,4322.07 8399.19,4332.58 8387.42,4340.84 8356.97,4397.59 8358.78,4414.85 8351.07,4433.31"/>
    <poly id="164887188" type="leisure.park" color="207,245,201" fill="1" layer="-2.00" shape="4154.49,3186.24 4131.66,3205.80 4083.31,3154.74 4106.89,3134.61 4154.49,3186.24"/>
    <poly id="164887190" type="natural.water" color="181,209,209" fill="1" layer="-4.00" shape="3896.95,3206.83 3896.07,3198.38 3892.57,3189.91 3884.28,3181.18 3868.20,3167.58 3850.77,3153.22 3819.74,3137.77 3798.60,3131.23 3802.65,3144.47 3795.16,3150.89 3778.50,3159.81 3775.35,3167.58 3756.42,3182.97 3730.08,3199.58 3721.64,3212.50 3717.20,3219.39 3726.17,3235.55 3745.72,3240.99 3762.21,3246.82 3775.34,3242.64 3791.43,3245.43 3803.13,3251.65 3815.31,3253.09 3830.62,3249.37 3868.75,3231.60 3880.58,3223.29 3889.40,3217.10 3896.95,3206.83"/>
    <poly id="165694547" type="building.university" color="255,230,230" fill="1" layer="-1.00" shape="3588.06,3438.75 3593.51,3419.98 3651.89,3439.97 3645.81,3459.75 3588.06,3438.75"/>
    <poly id="165694554" type="building.university" color="255,230,230" fill="1" layer="-1.00" shape="3575.31,3372.37 3581.15,3349.97 3709.87,3395.91 3701.42,3419.25 3621.41,3389.51 3575.31,3372.37"/>
    <poly id="165694557" type="amenity.restaurant" color="237,199,199" fill="1" layer="-1.00" shape="3546.98,3459.16 3547.04,3465.35 3549.21,3471.15 3553.22,3475.89 3558.60,3478.99 3564.72,3480.09 3570.86,3479.07 3576.29,3476.04 3580.36,3471.36 3582.61,3465.59 3582.83,3459.88 3581.24,3454.40 3578.02,3449.69 3573.48,3446.22 3568.08,3444.32 3562.35,3444.20 3556.87,3445.88 3552.19,3449.16 3548.78,3453.74 3546.98,3459.16"/>
    <poly id="165694557#1" type="building.university" color="255,230,230" fill="1" layer="-1.00" shape="3546.98,3459.16 3547.04,3465.35 3549.21,3471.15 3553.22,3475.89 3558.60,3478.99 3564.72,3480.09 3570.86,3479.07 3576.29,3476.04 3580.36,3471.36 3582.61,3465.59 3582.83,3459.88 3581.24,3454.40 3578.02,3449.69 3573.48,3446.22 3568.08,3444.32 3562.35,3444.20 3556.87,3445.88 3552.19,3449.16 3548.78,3453.74 3546.98,3459.16"/>
    <poly id="165694561" type="natural.water" color="181,209,209" fill="1" layer="-4.00" shape="3654.61,3303.18 3656.02,3311.30 3659.97,3318.53 3666.02,3324.15 3673.57,3327.54 3682.10,3328.33 3690.43,3326.27 3697.61,3321.59 3702.82,3314.80 3705.48,3306.68 3705.30,3298.15 3702.29,3290.16 3696.80,3283.59 3689.43,3279.21 3681.33,3277.52 3673.12,3278.49 3665.63,3282.02 3659.68,3287.73 3655.87,3295.04 3654.61,3303.18"/>
    <poly id="165694566" type="landuse.grass" color="194,194,130" fill="1" layer="-3.00" shape="3568.01,3275.99 3593.29,3271.76 3635.97,3263.72 3639.46,3265.85 3639.89,3273.18 3637.96,3288.86 3646.50,3307.63 3653.97,3313.47 3652.90,3300.03 3655.63,3291.16 3657.29,3284.04 3662.07,3280.08 3648.38,3252.00 3644.73,3248.99 3627.80,3243.73 3610.76,3247.54 3597.19,3253.49 3582.34,3263.78 3568.01,3275.99"/>
    <poly id="165694567" type="landuse.grass" color="194,194,130" fill="1" layer="-3.00" shape="3559.87,3327.19 3634.23,3352.66 3678.25,3364.69 3694.01,3365.24 3707.55,3361.20 3688.81,3330.81 3664.99,3330.35 3650.05,3317.96 3635.87,3302.09 3634.08,3290.74 3632.11,3279.37 3626.06,3273.02 3610.96,3274.24 3595.15,3277.71 3563.02,3283.09 3552.08,3289.07 3547.41,3298.43 3545.16,3310.27 3549.95,3320.44 3559.87,3327.19"/>
    <poly id="165694570" type="landuse.grass" color="194,194,130" fill="1" layer="-3.00" shape="3714.74,3361.29 3697.76,3329.86 3702.37,3325.38 3710.43,3311.00 3709.01,3297.90 3703.54,3286.32 3696.44,3278.73 3688.07,3274.97 3672.13,3273.91 3669.16,3272.83 3652.11,3233.73 3656.71,3229.42 3668.94,3233.23 3680.94,3255.53 3686.77,3251.58 3707.62,3267.01 3729.56,3279.12 3737.48,3290.91 3739.57,3306.63 3738.00,3321.10 3732.02,3337.42 3714.74,3361.29"/>
    <poly id="165694577" type="building.university" color="255,230,230" fill="1" layer="-1.00" shape="3522.30,3463.00 3525.14,3455.00 3527.74,3447.72 3521.70,3445.46 3514.08,3439.95 3508.82,3434.95 3506.95,3431.88 3503.83,3426.75 3501.69,3418.71 3500.29,3410.80 3501.93,3399.10 3486.25,3393.61 3483.82,3409.98 3485.78,3422.96 3487.81,3429.40 3491.19,3436.35 3496.55,3444.68 3504.26,3452.66 3512.87,3458.31 3522.30,3463.00"/>
    <poly id="165694585" type="building.university" color="255,230,230" fill="1" layer="-1.00" shape="3480.81,3210.90 3474.73,3200.46 3508.43,3180.39 3514.98,3193.04 3480.81,3210.90"/>
    <poly id="165694606" type="leisure.pitch" color="207,245,201" fill="1" layer="-2.00" shape="3609.46,3226.04 3577.75,3149.74 3559.05,3157.44 3555.36,3148.55 3536.20,3098.97 3536.27,3092.67 3539.11,3083.22 3543.99,3079.93 3573.78,3085.72 3590.08,3081.10 3630.26,3130.42 3636.69,3132.10 3646.23,3132.21 3654.56,3129.50 3662.68,3125.75 3666.27,3125.60 3669.85,3127.69 3679.21,3133.61 3700.90,3153.44 3705.99,3162.64 3706.70,3171.42 3703.94,3179.16 3695.04,3186.45 3649.99,3208.76 3641.77,3212.50 3609.46,3226.04"/>
    <poly id="165694606#1" type="sport.multi" color="79,230,125" fill="1" layer="-2.00" shape="3609.46,3226.04 3577.75,3149.74 3559.05,3157.44 3555.36,3148.55 3536.20,3098.97 3536.27,3092.67 3539.11,3083.22 3543.99,3079.93 3573.78,3085.72 3590.08,3081.10 3630.26,3130.42 3636.69,3132.10 3646.23,3132.21 3654.56,3129.50 3662.68,3125.75 3666.27,3125.60 3669.85,3127.69 3679.21,3133.61 3700.90,3153.44 3705.99,3162.64 3706.70,3171.42 3703.94,3179.16 3695.04,3186.45 3649.99,3208.76 3641.77,3212.50 3609.46,3226.04"/>
    <poly id="165694608" type="amenity.bicycle_parking" color="237,199,199" fill="1" layer="-1.00" shape="3551.79,3429.98 3578.50,3439.66 3585.47,3420.55 3558.76,3410.89 3551.79,3429.98"/>
    <poly id="165694618" type="amenity.bicycle_parking" color="237,199,199" fill="1" layer="-1.00" shape="3639.70,3514.82 3652.61,3481.82 3673.84,3489.72 3661.92,3522.36 3655.29,3520.56 3639.70,3514.82"/>
    <poly id="165694620" type="leisure.sports_centre" color="207,245,201" fill="1" layer="-2.00" shape="3537.87,3223.48 3522.41,3189.26 3537.39,3180.31 3535.00,3172.88 3565.90,3159.43 3587.27,3196.44 3537.87,3223.48"/>
    <poly id="165694621" type="amenity.bicycle_parking" color="237,199,199" fill="1" layer="-1.00" shape="3621.49,3512.61 3609.75,3508.44 3598.99,3506.76 3605.02,3490.28 3604.42,3488.42 3611.47,3466.64 3636.65,3475.45 3621.49,3512.61"/>
    <poly id="165694628" type="amenity.bicycle_parking" color="237,199,199" fill="1" layer="-1.00" shape="3455.63,3261.40 3424.55,3248.21 3417.19,3242.21 3417.74,3237.28 3422.19,3232.49 3439.61,3226.76 3445.16,3231.54 3455.63,3261.40"/>
    <poly id="165694631" type="leisure.pitch" color="207,245,201" fill="1" layer="-2.00" shape="3473.60,3272.32 3467.95,3267.56 3442.25,3219.15 3470.95,3202.71 3477.99,3215.38 3506.58,3201.18 3528.97,3242.30 3473.60,3272.32"/>
    <poly id="165694631#1" type="sport.tennis" color="79,230,125" fill="1" layer="-2.00" shape="3473.60,3272.32 3467.95,3267.56 3442.25,3219.15 3470.95,3202.71 3477.99,3215.38 3506.58,3201.18 3528.97,3242.30 3473.60,3272.32"/>
    <poly id="165699325" type="building.yes" color="255,230,230" fill="1" layer="-1.00" shape="3666.06,3736.60 3663.83,3772.90 3631.62,3772.74 3633.18,3735.54 3666.06,3736.60"/>
    <poly id="165699325#1" type="tourism.guest_house" color="207,245,201" fill="1" layer="-2.00" shape="3666.06,3736.60 3663.83,3772.90 3631.62,3772.74 3633.18,3735.54 3666.06,3736.60"/>
    <poly id="165699326" type="building.yes" color="255,230,230" fill="1" layer="-1.00" shape="3671.66,3681.96 3703.85,3684.12 3699.79,3722.87 3668.50,3720.71 3671.66,3681.96"/>
    <poly id="165699326#1" type="tourism.guest_house" color="207,245,201" fill="1" layer="-2.00" shape="3671.66,3681.96 3703.85,3684.12 3699.79,3722.87 3668.50,3720.71 3671.66,3681.96"/>
    <poly id="165699327" type="tourism.guest_house" color="207,245,201" fill="1" layer="-2.00" shape="3619.36,3608.68 3611.60,3635.95 3634.07,3641.37 3641.82,3614.56 3619.36,3608.68"/>
    <poly id="165699328" type="amenity.parking" color="184,184,179" fill="1" layer="-1.00" shape="3475.83,3451.94 3480.23,3435.96 3474.21,3406.86 3469.20,3406.15 3457.55,3446.94 3466.36,3449.54 3475.83,3451.94"/>
    <poly id="165713639" type="landuse.forest" color="140,196,107" fill="1" layer="-3.00" shape="2552.32,3223.91 2557.97,3193.19 2576.74,3154.10 2607.60,3126.50 2646.89,3108.33 2667.72,3102.09 2698.69,3100.02 2743.38,3107.43 2785.03,3131.02 2763.17,3164.47 2776.73,3185.58 2838.75,3236.59 2897.99,3288.34 2936.77,3347.95 2977.31,3397.45 2989.39,3443.38 2991.93,3504.18 3007.32,3580.54 3062.27,3615.63 3088.96,3630.53 3111.68,3636.47 3154.23,3653.17 3053.43,3639.42 3025.98,3620.87 3012.63,3613.43 2990.22,3614.78 2960.31,3562.98 2957.27,3509.85 2945.54,3468.40 2942.28,3433.50 2920.65,3404.08 2878.30,3404.80 2855.01,3377.37 2823.07,3324.73 2780.30,3294.24 2761.79,3243.83 2735.96,3233.78 2688.15,3177.17 2673.09,3182.20 2668.02,3181.10 2626.96,3211.42 2552.32,3223.91"/>
    <poly id="166553605" type="amenity.university" color="237,199,199" fill="1" layer="-1.00" shape="3345.11,3387.39 3361.68,3390.94 3365.54,3376.29 3348.65,3373.94 3345.11,3387.39"/>
    <poly id="166553606" type="building.yes" color="255,230,230" fill="1" layer="-1.00" shape="3283.26,3367.93 3296.30,3370.10 3296.26,3373.23 3283.19,3370.93 3283.26,3367.93"/>
    <poly id="166553607" type="building.yes" color="255,230,230" fill="1" layer="-1.00" shape="3294.37,3384.34 3296.26,3373.23 3296.30,3370.10 3341.83,3378.47 3338.90,3391.91 3294.37,3384.34"/>
    <poly id="166553608" type="building.yes" color="255,230,230" fill="1" layer="-1.00" shape="3267.48,3394.43 3281.33,3394.29 3283.19,3370.93 3283.26,3367.93 3269.02,3367.18 3267.48,3394.43"/>
    <poly id="166553610" type="amenity.parking" color="184,184,179" fill="1" layer="-1.00" shape="3238.02,3412.67 3249.76,3413.39 3254.71,3341.43 3262.17,3341.66 3253.23,3333.00 3244.39,3333.30 3238.02,3412.67"/>
    <poly id="166554942" type="amenity.restaurant" color="237,199,199" fill="1" layer="-1.00" shape="2965.42,3351.15 2954.95,3361.39 2966.36,3372.94 2976.81,3362.69 2965.42,3351.15"/>
    <poly id="166554942#1" type="building.yes" color="255,230,230" fill="1" layer="-1.00" shape="2965.42,3351.15 2954.95,3361.39 2966.36,3372.94 2976.81,3362.69 2965.42,3351.15"/>
    <poly id="166554943" type="amenity.library" color="237,199,199" fill="1" layer="-1.00" shape="3272.10,3274.49 3273.41,3226.93 3282.86,3227.78 3285.55,3211.05 3286.14,3203.30 3334.15,3205.60 3328.59,3276.64 3272.10,3274.49"/>
    <poly id="166554943#1" type="building.yes" color="255,230,230" fill="1" layer="-1.00" shape="3272.10,3274.49 3273.41,3226.93 3282.86,3227.78 3285.55,3211.05 3286.14,3203.30 3334.15,3205.60 3328.59,3276.64 3272.10,3274.49"/>
    <poly id="166554944" type="building.yes" color="255,230,230" fill="1" layer="-1.00" shape="3035.60,3455.69 3047.35,3424.90 3027.28,3417.29 3015.51,3448.08 3035.60,3455.69"/>
    <poly id="166554945" type="building.yes" color="255,230,230" fill="1" layer="-1.00" shape="3060.98,3465.48 3068.31,3445.44 3047.05,3437.74 3039.72,3457.77 3060.98,3465.48"/>
    <poly id="166554946" type="building.yes" color="255,230,230" fill="1" layer="-1.00" shape="3186.87,3482.61 3171.14,3475.64 3146.39,3541.00 3161.86,3546.34 3186.87,3482.61"/>
    <poly id="166554947" type="building.university" color="255,230,230" fill="1" layer="-1.00" shape="3068.53,3288.31 3155.87,3312.86 3152.99,3324.48 3065.64,3301.40 3068.53,3288.31"/>
    <poly id="166554948" type="building.university" color="255,230,230" fill="1" layer="-1.00" shape="3053.04,3327.60 3099.51,3342.43 3094.12,3356.98 3122.89,3365.25 3135.26,3328.98 3060.36,3305.42 3053.04,3327.60"/>
    <poly id="166554949" type="building.university" color="255,230,230" fill="1" layer="-1.00" shape="3132.54,3370.57 3167.80,3377.42 3177.00,3336.90 3143.70,3330.81 3132.54,3370.57"/>
    <poly id="166554950" type="building.university" color="255,230,230" fill="1" layer="-1.00" shape="3184.70,3358.79 3188.18,3338.52 3220.48,3342.37 3217.51,3362.40 3184.70,3358.79"/>
    <poly id="166554951" type="building.university" color="255,230,230" fill="1" layer="-1.00" shape="3181.17,3383.28 3183.87,3365.73 3216.18,3369.82 3212.99,3386.87 3181.17,3383.28"/>
    <poly id="166554952" type="building.yes" color="255,230,230" fill="1" layer="-1.00" shape="3094.89,3500.56 3065.59,3490.79 3082.19,3441.45 3111.49,3451.22 3094.89,3500.56"/>
    <poly id="166554953" type="building.university" color="255,230,230" fill="1" layer="-1.00" shape="3117.92,3406.81 3128.66,3382.66 3091.50,3367.36 3078.76,3392.73 3117.92,3406.81"/>
    <poly id="166554954" type="building.university" color="255,230,230" fill="1" layer="-1.00" shape="3133.50,3394.61 3138.10,3384.02 3146.78,3387.58 3142.67,3398.19 3133.50,3394.61"/>
    <poly id="166554955" type="building.university" color="255,230,230" fill="1" layer="-1.00" shape="3126.33,3411.13 3131.95,3399.05 3140.38,3402.38 3135.01,3414.20 3126.33,3411.13"/>
    <poly id="166554956" type="building.university" color="255,230,230" fill="1" layer="-1.00" shape="3142.47,3414.79 3144.71,3406.63 3149.19,3408.18 3147.18,3416.33 3142.47,3414.79"/>
    <poly id="166554957" type="building.university" color="255,230,230" fill="1" layer="-1.00" shape="3157.87,3418.18 3162.66,3390.99 3209.61,3399.96 3205.83,3424.45 3157.87,3418.18"/>
    <poly id="166554958" type="building.university" color="255,230,230" fill="1" layer="-1.00" shape="3065.90,3385.88 3039.21,3368.97 3051.88,3350.04 3078.33,3366.21 3065.90,3385.88"/>
    <poly id="166554959" type="building.yes" color="255,230,230" fill="1" layer="-1.00" shape="3050.88,3505.02 3062.09,3471.72 3038.67,3463.90 3027.46,3497.20 3050.88,3505.02"/>
    <poly id="166554960" type="building.yes" color="255,230,230" fill="1" layer="-1.00" shape="3163.99,3473.01 3134.56,3461.34 3104.00,3537.77 3133.43,3549.43 3163.99,3473.01"/>
    <poly id="166554965" type="amenity.motorcycle_parking" color="237,199,199" fill="1" layer="-1.00" shape="2930.46,3300.73 2941.38,3309.42 2943.05,3314.77 2945.52,3321.79 2948.30,3326.56 2952.34,3330.78 2955.55,3335.36 2964.94,3348.85 2955.25,3358.65 2947.61,3350.43 2941.14,3340.51 2936.30,3328.80 2929.73,3316.85 2925.01,3304.89 2930.46,3300.73"/>
    <poly id="166554966" type="aeroway.helipad" color="grey" fill="1" layer="-2.00" shape="2993.81,3380.73 2996.82,3380.38 2999.79,3381.00 3002.41,3382.53 3004.38,3384.82 3005.57,3387.74 3005.70,3390.88 3004.78,3393.88 3002.91,3396.41 3000.30,3398.18 2997.26,3399.00 2994.11,3398.75 2991.22,3397.48 2988.99,3395.43 2987.55,3392.77 2987.03,3389.79 2987.49,3386.80 2988.88,3384.13 2991.06,3382.02 2993.81,3380.73"/>
    <poly id="166554967" type="amenity.parking" color="184,184,179" fill="1" layer="-1.00" shape="2837.01,3196.87 2862.42,3219.75 2889.80,3251.14 2910.73,3274.41 2919.40,3291.01 2907.74,3299.69 2894.05,3283.42 2889.88,3278.00 2881.15,3265.62 2862.09,3248.13 2845.65,3236.82 2830.38,3223.21 2817.94,3215.84 2829.28,3202.89 2837.01,3196.87"/>
    <poly id="166554969" type="amenity.motorcycle_parking" color="237,199,199" fill="1" layer="-1.00" shape="2869.69,3096.07 2854.18,3117.39 2851.34,3115.47 2831.05,3146.78 2816.79,3139.00 2852.30,3082.81 2869.69,3096.07"/>
    <poly id="166554970" type="amenity.motorcycle_parking" color="237,199,199" fill="1" layer="-1.00" shape="3097.89,3505.25 3093.92,3515.64 3105.33,3519.95 3109.30,3509.56 3097.89,3505.25"/>
    <poly id="166554971" type="amenity.parking" color="184,184,179" fill="1" layer="-1.00" shape="3099.64,3500.52 3112.93,3505.54 3130.66,3459.08 3117.37,3454.05 3099.64,3500.52"/>
    <poly id="166554973" type="amenity.parking" color="184,184,179" fill="1" layer="-1.00" shape="3136.21,3184.66 3133.79,3173.48 3131.59,3165.12 3148.04,3121.83 3139.94,3111.69 3152.42,3112.90 3160.05,3123.55 3155.21,3133.82 3141.26,3159.49 3142.51,3175.12 3142.69,3180.26 3136.21,3184.66"/>
    <poly id="166555230" type="amenity.parking" color="184,184,179" fill="1" layer="-1.00" shape="3148.15,3546.10 3121.00,3580.58 3040.04,3556.59 3025.48,3526.74 3030.37,3504.79 3048.82,3509.61 3058.82,3489.77 3085.96,3499.81 3107.57,3455.54 3128.06,3461.42 3109.65,3540.01 3148.15,3546.10"/>
    <poly id="166555231" type="amenity.motorcycle_parking" color="237,199,199" fill="1" layer="-1.00" shape="3351.64,3463.34 3406.03,3472.69 3476.04,3509.33 3512.46,3538.17 3504.85,3551.38 3489.99,3547.37 3480.41,3553.14 3460.46,3543.95 3454.31,3541.83 3458.54,3532.92 3458.15,3521.66 3436.15,3513.21 3383.46,3490.07 3363.58,3474.99 3347.15,3473.01 3343.33,3469.64 3342.16,3460.41 3351.64,3463.34"/>
    <poly id="166555233" type="amenity.parking" color="184,184,179" fill="1" layer="-1.00" shape="3619.40,3546.28 3653.68,3560.50 3657.43,3569.00 3651.55,3588.62 3614.46,3572.33 3619.40,3546.28"/>
    <poly id="166555234" type="amenity.parking" color="184,184,179" fill="1" layer="-1.00" shape="3389.41,3503.13 3447.50,3526.59 3448.73,3530.45 3443.99,3540.37 3393.86,3518.80 3387.27,3509.76 3389.41,3503.13"/>
    <poly id="166555235" type="amenity.parking" color="184,184,179" fill="1" layer="-1.00" shape="3572.75,3516.25 3613.18,3532.60 3610.16,3548.43 3600.12,3549.58 3597.40,3540.60 3571.66,3521.87 3572.75,3516.25"/>
    <poly id="166555236" type="amenity.parking" color="184,184,179" fill="1" layer="-1.00" shape="3238.25,3420.42 3335.20,3417.98 3453.58,3429.86 3449.30,3444.65 3362.27,3433.90 3296.67,3436.20 3238.77,3441.66 3238.25,3420.42"/>
    <poly id="166555792" type="landuse.industrial" color="209,209,204" fill="1" layer="-3.00" shape="2567.61,3377.17 2592.60,3389.85 2619.42,3430.39 2597.06,3453.30 2591.56,3455.46 2580.08,3447.26 2544.23,3416.26 2567.61,3377.17"/>
    <poly id="166555793" type="building.university" color="255,230,230" fill="1" layer="-1.00" shape="2251.89,3635.29 2255.48,3624.47 2271.99,3579.45 2311.31,3589.48 2293.43,3648.40 2251.89,3635.29"/>
    <poly id="166555802" type="amenity.parking_space" color="237,199,199" fill="1" layer="-1.00" shape="2383.96,3686.19 2376.36,3712.93 2405.00,3730.37 2426.13,3692.62 2390.15,3667.12 2386.04,3674.53 2383.96,3686.19"/>
    <poly id="166556131" type="amenity.restaurant" color="237,199,199" fill="1" layer="-1.00" shape="2914.53,3080.93 2921.79,3077.54 2928.31,3074.16 2934.06,3071.50 2938.32,3069.69 2942.56,3068.99 2948.03,3069.31 2952.62,3070.60 2957.95,3072.40 2961.40,3074.67 2963.28,3077.04 2965.32,3080.54 2965.65,3082.62 2967.00,3085.51 2967.63,3090.25 2968.27,3095.79 2968.57,3100.12 2969.38,3104.79 2969.66,3110.33 2962.27,3118.88 2932.96,3097.12 2914.53,3080.93"/>
    <poly id="166556131#1" type="building.yes" color="255,230,230" fill="1" layer="-1.00" shape="2914.53,3080.93 2921.79,3077.54 2928.31,3074.16 2934.06,3071.50 2938.32,3069.69 2942.56,3068.99 2948.03,3069.31 2952.62,3070.60 2957.95,3072.40 2961.40,3074.67 2963.28,3077.04 2965.32,3080.54 2965.65,3082.62 2967.00,3085.51 2967.63,3090.25 2968.27,3095.79 2968.57,3100.12 2969.38,3104.79 2969.66,3110.33 2962.27,3118.88 2932.96,3097.12 2914.53,3080.93"/>
    <poly id="166556132" type="amenity.university" color="237,199,199" fill="1" layer="-1.00" shape="2831.70,3192.15 2815.08,3213.96 2777.60,3184.54 2800.63,3158.99 2812.43,3168.24 2811.51,3173.50 2831.70,3192.15"/>
    <poly id="166556132#1" type="building.yes" color="255,230,230" fill="1" layer="-1.00" shape="2831.70,3192.15 2815.08,3213.96 2777.60,3184.54 2800.63,3158.99 2812.43,3168.24 2811.51,3173.50 2831.70,3192.15"/>
    <poly id="166556363" type="amenity.restaurant" color="237,199,199" fill="1" layer="-1.00" shape="3555.08,3367.59 3561.96,3343.28 3516.30,3326.14 3508.86,3352.69 3549.88,3365.92 3555.08,3367.59"/>
    <poly id="166556363#1" type="building.yes" color="255,230,230" fill="1" layer="-1.00" shape="3555.08,3367.59 3561.96,3343.28 3516.30,3326.14 3508.86,3352.69 3549.88,3365.92 3555.08,3367.59"/>
    <poly id="166558341" type="leisure.pitch" color="207,245,201" fill="1" layer="-2.00" shape="2359.33,3681.57 2351.41,3678.27 2248.51,3647.29 2219.04,3642.93 2194.52,3639.31 2154.52,3663.74 2133.24,3708.35 2127.93,3876.65 2224.67,3882.08 2263.76,3889.16 2293.68,3892.51 2345.08,3883.39 2344.77,3847.85 2342.86,3803.59 2344.53,3759.53 2347.12,3737.51 2350.25,3719.00 2359.33,3681.57"/>
    <poly id="166559478" type="building.yes" color="255,230,230" fill="1" layer="-1.00" shape="3311.27,3464.28 3314.78,3493.18 3277.24,3497.72 3272.82,3468.23 3311.27,3464.28"/>
    <poly id="166559841" type="building.yes" color="255,230,230" fill="1" layer="-1.00" shape="3208.21,3500.58 3208.47,3478.57 3258.81,3479.17 3258.58,3499.16 3208.21,3500.58"/>
    <poly id="166560012" type="amenity.parking" color="184,184,179" fill="1" layer="-1.00" shape="2451.14,3416.16 2441.28,3410.55 2429.46,3402.04 2431.39,3397.02 2451.95,3341.98 2471.30,3350.31 2487.18,3357.12 2511.75,3318.87 2519.59,3321.57 2521.06,3353.55 2515.34,3374.79 2482.13,3362.51 2451.14,3416.16"/>
    <poly id="166560013" type="amenity.parking" color="184,184,179" fill="1" layer="-1.00" shape="2484.62,3495.82 2510.68,3484.81 2522.47,3511.34 2532.57,3534.36 2532.41,3533.65 2551.33,3573.77 2537.13,3591.30 2484.62,3495.82"/>
    <poly id="167423390" type="building.yes" color="255,230,230" fill="1" layer="-1.00" shape="3071.29,3269.40 3059.84,3265.57 3032.10,3256.93 3013.27,3248.40 2969.76,3225.67 2979.25,3207.06 3039.62,3233.18 3035.62,3242.01 3060.58,3250.62 3076.70,3253.03 3071.29,3269.40"/>
    <poly id="167423391" type="building.yes" color="255,230,230" fill="1" layer="-1.00" shape="2925.41,3129.23 2931.29,3114.28 2955.49,3134.91 2964.28,3151.93 2976.41,3158.69 2982.55,3162.13 3001.90,3173.99 3021.84,3182.54 3039.01,3190.50 3055.10,3195.68 3044.20,3210.67 3036.57,3224.43 2999.15,3204.87 2982.29,3195.92 2951.80,3179.34 2931.00,3165.50 2899.68,3139.79 2914.52,3122.17 2925.41,3129.23"/>
    <poly id="167423392" type="building.yes" color="255,230,230" fill="1" layer="-1.00" shape="3061.93,3176.13 3022.05,3159.31 3026.93,3146.24 3044.52,3153.63 3044.19,3155.88 3047.22,3157.13 3053.88,3140.61 3071.71,3148.00 3061.93,3176.13"/>
    <poly id="167423918" type="building.yes" color="255,230,230" fill="1" layer="-1.00" shape="3090.63,3215.70 3104.63,3178.23 3123.28,3186.76 3121.64,3191.76 3170.83,3210.68 3158.01,3241.24 3090.63,3215.70"/>
    <poly id="167428484" type="building.yes" color="255,230,230" fill="1" layer="-1.00" shape="2894.91,3185.94 2960.13,3227.17 2973.74,3206.81 2909.06,3166.43 2894.91,3185.94"/>