<?xml version="1.0"?>
<!-- generated on 2018-11-10 22:38:16.044191 by $Id: route2trips.py 22929 2017-02-13 14:38:39Z behrisch $ via randomTrips.py
  options: 
-->
<routes xmlns:xsi="http://www.w3.org/2001/XMLSchema-instance" xsi:noNamespaceSchemaLocation="http://sumo.dlr.de/xsd/routes_file.xsd">
    <vType id="passenger" vClass="passenger"/>
    <trip id="veh0" depart="0.00" departLane="best" from="164371221#2" to="-162667847#0" type="passenger"/>
    <trip id="veh1" depart="0.49" departLane="best" from="-191132689" to="-191131673" type="passenger"/>
    <trip id="veh2" depart="0.98" departLane="best" from="191132035" to="191130585" type="passenger"/>
    <trip id="veh3" depart="1.46" departLane="best" from="225209489#8" to="-164033490#1" type="passenger"/>
    <trip id="veh4" depart="1.95" departLane="best" from="-239082213#14" to="-162667862#0" type="passenger"/>
    <trip id="veh5" depart="2.44" departLane="best" from="-191131166" to="162667855" type="passenger"/>
    <trip id="veh6" depart="2.93" departLane="best" from="-162667845#1" to="-191130809" type="passenger"/>
    <trip id="veh7" depart="3.41" departLane="best" from="164379746" to="163508450#14" type="passenger"/>
    <trip id="veh8" depart="3.90" departLane="best" from="-191131172" to="164299602#1" type="passenger"/>
    <trip id="veh9" depart="4.39" departLane="best" from="191134085#2" to="-161948265#0" type="passenger"/>
    <trip id="veh10" depart="4.88" departLane="best" from="191134033" to="191131347" type="passenger"/>
    <trip id="veh11" depart="5.36" departLane="best" from="-191157359#2" to="-164379757" type="passenger"/>
    <trip id="veh12" depart="5.85" departLane="best" from="67209995#12" to="-191310034" type="passenger"/>
    <trip id="veh13" depart="6.34" departLane="best" from="-164033495#2" to="-164248635#2" type="passenger"/>
    <trip id="veh14" depart="6.83" departLane="best" from="191310975" to="164301686#3" type="passenger"/>
    <trip id="veh15" depart="7.31" departLane="best" from="191134046#3" to="191132153" type="passenger"/>
    <trip id="veh16" depart="7.80" departLane="best" from="163045535#2" to="84515004#12" type="passenger"/>
    <trip id="veh17" depart="8.29" departLane="best" from="-191312069" to="163508455" type="passenger"/>
    <trip id="veh19" depart="9.26" departLane="best" from="191312934" to="164298202#0" type="passenger"/>
    <trip id="veh20" depart="9.75" departLane="best" from="191130957" to="-163045550#0" type="passenger"/>
    <trip id="veh21" depart="10.24" departLane="best" from="-163508458#3" to="-191131925" type="passenger"/>
    <trip id="veh22" depart="10.73" departLane="best" from="-164298198#1" to="-191133293" type="passenger"/>
    <trip id="veh23" depart="11.21" departLane="best" from="164371211#0" to="-191319790" type="passenger"/>
    <trip id="veh24" depart="11.70" departLane="best" from="-191311254#2" to="-191131249" type="passenger"/>
    <trip id="veh25" depart="12.19" departLane="best" from="-191132389" to="617646475" type="passenger"/>
    <trip id="veh26" depart="12.68" departLane="best" from="164371235#3" to="164371217" type="passenger"/>
    <trip id="veh27" depart="13.16" departLane="best" from="-164379770#0" to="191132151" type="passenger"/>
    <trip id="veh28" depart="13.65" departLane="best" from="-164379760#1" to="-222850634" type="passenger"/>
    <trip id="veh29" depart="14.14" departLane="best" from="86813499#2" to="164379763#2" type="passenger"/>
    <trip id="veh30" depart="14.63" departLane="best" from="163508437#0" to="191130831" type="passenger"/>
    <trip id="veh31" depart="15.11" departLane="best" from="191310258" to="191133385#1" type="passenger"/>
    <trip id="veh32" depart="15.60" departLane="best" from="-191131476" to="-163045535#4" type="passenger"/>
    <trip id="veh33" depart="16.09" departLane="best" from="-191133813" to="-191132983" type="passenger"/>
    <trip id="veh34" depart="16.58" departLane="best" from="-191130829#2" to="62269460#3" type="passenger"/>
    <trip id="veh35" depart="17.06" departLane="best" from="191353114#1" to="-191157343#0" type="passenger"/>
    <trip id="veh36" depart="17.55" departLane="best" from="164379751" to="-268468399" type="passenger"/>
    <trip id="veh37" depart="18.04" departLane="best" from="513658842#0" to="-85104167#11" type="passenger"/>
    <trip id="veh38" depart="18.53" departLane="best" from="-191132335" to="-191132301" type="passenger"/>
    <trip id="veh39" depart="19.01" departLane="best" from="163508441#4" to="-191132781" type="passenger"/>
    <trip id="veh40" depart="19.50" departLane="best" from="163508460#0" to="239082213#13" type="passenger"/>
    <trip id="veh41" depart="19.99" departLane="best" from="-191353135" to="-191131606" type="passenger"/>
    <trip id="veh42" depart="20.48" departLane="best" from="86813807#0" to="163045537#1" type="passenger"/>
    <trip id="veh43" depart="20.96" departLane="best" from="-164033494#4" to="-163508432#1" type="passenger"/>
    <trip id="veh44" depart="21.45" departLane="best" from="-164299592#7" to="164379749#3" type="passenger"/>
    <trip id="veh45" depart="21.94" departLane="best" from="191133781" to="-62277652#0" type="passenger"/>
    <trip id="veh46" depart="22.43" departLane="best" from="-163508445#6" to="-222850640#2" type="passenger"/>
    <trip id="veh47" depart="22.91" departLane="best" from="86813807#0" to="163508440#1" type="passenger"/>
    <trip id="veh48" depart="23.40" departLane="best" from="84514785#2" to="191319794#0" type="passenger"/>
    <trip id="veh49" depart="23.89" departLane="best" from="-162514066#3" to="191131925" type="passenger"/>
    <trip id="veh50" depart="24.38" departLane="best" from="164379781#1" to="163508445#3" type="passenger"/>
    <trip id="veh51" depart="24.86" departLane="best" from="-191132389" to="164379763#5" type="passenger"/>
    <trip id="veh52" depart="25.35" departLane="best" from="-164299594#3" to="-67209995#9" type="passenger"/>
    <trip id="veh53" depart="25.84" departLane="best" from="-62269548#7" to="67209971#4" type="passenger"/>
    <trip id="veh54" depart="26.33" departLane="best" from="191353111#8" to="-191132798" type="passenger"/>
    <trip id="veh55" depart="26.81" departLane="best" from="513658841#0" to="191353111#8" type="passenger"/>
    <trip id="veh56" depart="27.30" departLane="best" from="-191133287" to="164379762#1" type="passenger"/>
    <trip id="veh57" depart="27.79" departLane="best" from="164299592#1" to="-164379753#1" type="passenger"/>
    <trip id="veh58" depart="28.28" departLane="best" from="191132781" to="163508446#2" type="passenger"/>
    <trip id="veh59" depart="28.76" departLane="best" from="-161269298#1" to="-191306570" type="passenger"/>
    <trip id="veh60" depart="29.25" departLane="best" from="-162514072#1" to="513658849#4" type="passenger"/>
    <trip id="veh61" depart="29.74" departLane="best" from="191353145#1" to="191309431" type="passenger"/>
    <trip id="veh62" depart="30.23" departLane="best" from="-191133635" to="-163508443#2" type="passenger"/>
    <trip id="veh63" depart="30.71" departLane="best" from="191353135" to="62269548#7" type="passenger"/>
    <trip id="veh64" depart="31.20" departLane="best" from="-163508463#3" to="162514066#4" type="passenger"/>
    <trip id="veh65" depart="31.69" departLane="best" from="-163508450#1" to="191133014#1" type="passenger"/>
    <trip id="veh66" depart="32.18" departLane="best" from="191132930" to="-164301686#3" type="passenger"/>
    <trip id="veh67" depart="32.66" departLane="best" from="-84514785#0" to="163508453#2" type="passenger"/>
    <trip id="veh68" depart="33.15" departLane="best" from="-191132335" to="191353123" type="passenger"/>
    <trip id="veh69" depart="33.64" departLane="best" from="-239082213#19" to="-191131317" type="passenger"/>
    <trip id="veh70" depart="34.13" departLane="best" from="163045539#0" to="191132165" type="passenger"/>
    <trip id="veh71" depart="34.61" departLane="best" from="-184735653#5" to="-191134087#4" type="passenger"/>
    <trip id="veh72" depart="35.10" departLane="best" from="86813719#7" to="164379774#8" type="passenger"/>
    <trip id="veh73" depart="35.59" departLane="best" from="-513658842#7" to="163045548#1" type="passenger"/>
    <trip id="veh74" depart="36.08" departLane="best" from="-191157345#0" to="164299600#4" type="passenger"/>
    <trip id="veh75" depart="36.57" departLane="best" from="-191131512" to="-191131615" type="passenger"/>
    <trip id="veh76" depart="37.05" departLane="best" from="-191131476" to="239083276#2" type="passenger"/>
    <trip id="veh77" depart="37.54" departLane="best" from="191312629" to="-163508450#14" type="passenger"/>
    <trip id="veh78" depart="38.03" departLane="best" from="-191131693" to="164902631#0" type="passenger"/>
    <trip id="veh79" depart="38.52" departLane="best" from="-191130888" to="-164371211#2" type="passenger"/>
    <trip id="veh80" depart="39.00" departLane="best" from="617648693#1" to="164039758#1" type="passenger"/>
    <trip id="veh81" depart="39.49" departLane="best" from="-67214798#8" to="191133695" type="passenger"/>
    <trip id="veh82" depart="39.98" departLane="best" from="191134053" to="-184735653#10" type="passenger"/>
    <trip id="veh83" depart="40.47" departLane="best" from="-164039758#1" to="-67209995#10" type="passenger"/>
    <trip id="veh84" depart="40.95" departLane="best" from="-239082213#2" to="-86813719#10" type="passenger"/>
    <trip id="veh85" depart="41.44" departLane="best" from="191131791" to="184735653#11" type="passenger"/>
    <trip id="veh86" depart="41.93" departLane="best" from="85104167#11" to="-164297156#0" type="passenger"/>
    <trip id="veh87" depart="42.42" departLane="best" from="-198529420#1" to="-191310607" type="passenger"/>
    <trip id="veh88" depart="42.90" departLane="best" from="191312934" to="-191132331" type="passenger"/>
    <trip id="veh89" depart="43.39" departLane="best" from="-164389324#2" to="-84515004#14" type="passenger"/>
    <trip id="veh90" depart="43.88" departLane="best" from="-239082213#14" to="-191133308#1" type="passenger"/>
    <trip id="veh91" depart="44.37" departLane="best" from="-191132009#0" to="513658844#7" type="passenger"/>
    <trip id="veh92" depart="44.85" departLane="best" from="-617427637" to="191319797#0" type="passenger"/>
    <trip id="veh93" depart="45.34" departLane="best" from="163045550#0" to="-163508436#1" type="passenger"/>
    <trip id="veh94" depart="45.83" departLane="best" from="67214837#2" to="513658847#0" type="passenger"/>
    <trip id="veh95" depart="46.32" departLane="best" from="191310975" to="-164379766" type="passenger"/>
    <trip id="veh96" depart="46.80" departLane="best" from="-85104166#1" to="-191131368" type="passenger"/>
    <trip id="veh97" depart="47.29" departLane="best" from="-191392349" to="-163508443#5" type="passenger"/>
    <trip id="veh98" depart="47.78" departLane="best" from="-191312069" to="85104167#3" type="passenger"/>
    <trip id="veh99" depart="48.27" departLane="best" from="-191132345" to="191133688" type="passenger"/>
    <trip id="veh100" depart="48.75" departLane="best" from="-62277652#4" to="-62277652#0" type="passenger"/>
    <trip id="veh101" depart="49.24" departLane="best" from="67209995#12" to="86813719#8" type="passenger"/>
    <trip id="veh102" depart="49.73" departLane="best" from="163508436#3" to="191131884" type="passenger"/>
    <trip id="veh103" depart="50.22" departLane="best" from="-164379751" to="-191133865" type="passenger"/>
    <trip id="veh104" depart="50.70" departLane="best" from="67214837#1" to="164298202#1" type="passenger"/>
    <trip id="veh105" depart="51.19" departLane="best" from="163045542#2" to="191132690" type="passenger"/>
    <trip id="veh106" depart="51.68" departLane="best" from="-163508443#0" to="164299594#0" type="passenger"/>
    <trip id="veh107" depart="52.17" departLane="best" from="-86813807#7" to="191312241" type="passenger"/>
    <trip id="veh108" depart="52.65" departLane="best" from="-164379756#0" to="67209995#6" type="passenger"/>
    <trip id="veh109" depart="53.14" departLane="best" from="-163508458#4" to="-164389324#1" type="passenger"/>
    <trip id="veh110" depart="53.63" departLane="best" from="164033495#1" to="184735653#4" type="passenger"/>
    <trip id="veh111" depart="54.12" departLane="best" from="-191131621" to="-164301680#19" type="passenger"/>
    <trip id="veh112" depart="54.60" departLane="best" from="225209489#2" to="-191132291#2" type="passenger"/>
    <trip id="veh113" depart="55.09" departLane="best" from="164033494#6" to="164371231" type="passenger"/>
    <trip id="veh114" depart="55.58" departLane="best" from="-225209489#9" to="164299592#7" type="passenger"/>
    <trip id="veh115" depart="56.07" departLane="best" from="162514072#0" to="617430931" type="passenger"/>
    <trip id="veh116" depart="56.55" departLane="best" from="-191130588#2" to="191131854" type="passenger"/>
    <trip id="veh117" depart="57.04" departLane="best" from="-191131699" to="-268468399" type="passenger"/>
    <trip id="veh118" depart="57.53" departLane="best" from="164379769" to="-191133980" type="passenger"/>
    <trip id="veh119" depart="58.02" departLane="best" from="-191133817#1" to="191132759" type="passenger"/>
    <trip id="veh120" depart="58.50" departLane="best" from="-163508450#9" to="-85104167#10" type="passenger"/>
    <trip id="veh121" depart="58.99" departLane="best" from="-163508452#0" to="-191131356" type="passenger"/>
    <trip id="veh122" depart="59.48" departLane="best" from="-191132345" to="617427633" type="passenger"/>
    <trip id="veh123" depart="59.97" departLane="best" from="-191311254#0" to="-164379759#1" type="passenger"/>
    <trip id="veh124" depart="60.45" departLane="best" from="191307452" to="191131553" type="passenger"/>
    <trip id="veh125" depart="60.94" departLane="best" from="164299592#5" to="86769208#0" type="passenger"/>
    <trip id="veh126" depart="61.43" departLane="best" from="164379749#2" to="-161948265#3" type="passenger"/>
    <trip id="veh127" depart="61.92" departLane="best" from="191157351" to="-191133952#1" type="passenger"/>
    <trip id="veh128" depart="62.40" departLane="best" from="164379759#4" to="617648693#2" type="passenger"/>
    <trip id="veh129" depart="62.89" departLane="best" from="-164371212" to="-164299604#3" type="passenger"/>
    <trip id="veh130" depart="63.38" departLane="best" from="-164299592#11" to="163508458#0" type="passenger"/>
    <trip id="veh131" depart="63.87" departLane="best" from="-191132664#0" to="164371207#0" type="passenger"/>
    <trip id="veh132" depart="64.35" departLane="best" from="191131476" to="-191130957" type="passenger"/>
    <trip id="veh133" depart="64.84" departLane="best" from="164371207#3" to="-191132815" type="passenger"/>
    <trip id="veh134" depart="65.33" departLane="best" from="-85104167#1" to="239083276#2" type="passenger"/>
    <trip id="veh135" depart="65.82" departLane="best" from="191310943" to="-164033495#5" type="passenger"/>
    <trip id="veh136" depart="66.30" departLane="best" from="-239082213#2" to="-191133265" type="passenger"/>
    <trip id="veh137" depart="66.79" departLane="best" from="-161269299#3" to="191133219" type="passenger"/>
    <trip id="veh138" depart="67.28" departLane="best" from="164371214" to="-191132753#1" type="passenger"/>
    <trip id="veh139" depart="67.77" departLane="best" from="191132132" to="163508454" type="passenger"/>
    <trip id="veh140" depart="68.25" departLane="best" from="-239083276#0" to="-161948267#0" type="passenger"/>
    <trip id="veh141" depart="68.74" departLane="best" from="-163508453#1" to="222850633" type="passenger"/>
    <trip id="veh142" depart="69.23" departLane="best" from="264128833" to="163508450#4" type="passenger"/>
    <trip id="veh143" depart="69.72" departLane="best" from="191307532" to="164299592#3" type="passenger"/>
    <trip id="veh144" depart="70.20" departLane="best" from="-164371235#6" to="-164301686#0" type="passenger"/>
    <trip id="veh145" depart="70.69" departLane="best" from="-191133646" to="239082213#16" type="passenger"/>
    <trip id="veh146" depart="71.18" departLane="best" from="191133840" to="191319794#0" type="passenger"/>
    <trip id="veh147" depart="71.67" departLane="best" from="239082213#9" to="-191131268" type="passenger"/>
    <trip id="veh148" depart="72.16" departLane="best" from="-191131993" to="-164298200#1" type="passenger"/>
    <trip id="veh149" depart="72.64" departLane="best" from="191133309#1" to="222850635#1" type="passenger"/>
    <trip id="veh150" depart="73.13" departLane="best" from="-222850632" to="164371235#2" type="passenger"/>
    <trip id="veh151" depart="73.62" departLane="best" from="-164379750" to="513658852#1" type="passenger"/>
    <trip id="veh152" depart="74.11" departLane="best" from="191319781" to="84515004#20" type="passenger"/>
    <trip id="veh153" depart="74.59" departLane="best" from="191134087#0" to="222850632" type="passenger"/>
    <trip id="veh154" depart="75.08" departLane="best" from="-162667841#0" to="191132331" type="passenger"/>
    <trip id="veh155" depart="75.57" departLane="best" from="-191134153" to="616916312" type="passenger"/>
    <trip id="veh156" depart="76.06" departLane="best" from="191133988" to="191319798#1" type="passenger"/>
    <trip id="veh157" depart="76.54" departLane="best" from="191134087#0" to="-191132948" type="passenger"/>
    <trip id="veh158" depart="77.03" departLane="best" from="191133638" to="-164299592#6" type="passenger"/>
    <trip id="veh159" depart="77.52" departLane="best" from="191319801#1" to="191319783" type="passenger"/>
    <trip id="veh160" depart="78.01" departLane="best" from="-191131249" to="191306143" type="passenger"/>
    <trip id="veh161" depart="78.49" departLane="best" from="-67209971#4" to="-191134033" type="passenger"/>
    <trip id="veh162" depart="78.98" departLane="best" from="191133817#3" to="-191131780" type="passenger"/>
    <trip id="veh163" depart="79.47" departLane="best" from="-162514073#6" to="-191130587" type="passenger"/>
    <trip id="veh164" depart="79.96" departLane="best" from="-191134085#2" to="191319800#1" type="passenger"/>
    <trip id="veh165" depart="80.44" departLane="best" from="67214798#4" to="-191133309#0" type="passenger"/>
    <trip id="veh166" depart="80.93" departLane="best" from="164371227#2" to="-316583024" type="passenger"/>
    <trip id="veh167" depart="81.42" departLane="best" from="85104166#3" to="163508445#15" type="passenger"/>
    <trip id="veh168" depart="81.91" departLane="best" from="61843390#0" to="-164299604#2" type="passenger"/>
    <trip id="veh169" depart="82.39" departLane="best" from="84514785#0" to="-164379782#0" type="passenger"/>
    <trip id="veh170" depart="82.88" departLane="best" from="67214798#1" to="-191132915#0" type="passenger"/>
    <trip id="veh171" depart="83.37" departLane="best" from="-164299592#3" to="-67209995#8" type="passenger"/>
    <trip id="veh172" depart="83.86" departLane="best" from="191131768" to="-191134184" type="passenger"/>
    <trip id="veh173" depart="84.34" departLane="best" from="164298200#0" to="163045541" type="passenger"/>
    <trip id="veh174" depart="84.83" departLane="best" from="-191313075#1" to="164298200#1" type="passenger"/>
    <trip id="veh175" depart="85.32" departLane="best" from="-191132112" to="191131648" type="passenger"/>
    <trip id="veh176" depart="85.81" departLane="best" from="-161269298#5" to="513658846#5" type="passenger"/>
    <trip id="veh177" depart="86.29" departLane="best" from="163045539#0" to="191131903" type="passenger"/>
    <trip id="veh178" depart="86.78" departLane="best" from="191132146" to="165678261" type="passenger"/>
    <trip id="veh179" depart="87.27" departLane="best" from="-191310888" to="-163508450#11" type="passenger"/>
    <trip id="veh180" depart="87.76" departLane="best" from="164379759#6" to="-191307432" type="passenger"/>
    <trip id="veh181" depart="88.24" departLane="best" from="-191133792" to="191311958#0" type="passenger"/>
    <trip id="veh182" depart="88.73" departLane="best" from="191131568" to="-191133988" type="passenger"/>
    <trip id="veh183" depart="89.22" departLane="best" from="-191133685" to="-616916312" type="passenger"/>
    <trip id="veh184" depart="89.71" departLane="best" from="-198529420#1" to="-191133854" type="passenger"/>
    <trip id="veh185" depart="90.19" departLane="best" from="-164301684#1" to="-62269548#1" type="passenger"/>
    <trip id="veh186" depart="90.68" departLane="best" from="62269456#2" to="191130588#1" type="passenger"/>
    <trip id="veh187" depart="91.17" departLane="best" from="264120321#6" to="164371228#2" type="passenger"/>
    <trip id="veh188" depart="91.66" departLane="best" from="-191133356" to="163508452#1" type="passenger"/>
    <trip id="veh189" depart="92.14" departLane="best" from="-161269298#1" to="-191133638" type="passenger"/>
    <trip id="veh190" depart="92.63" departLane="best" from="-239083276#2" to="164299592#0" type="passenger"/>
    <trip id="veh191" depart="93.12" departLane="best" from="164379749#4" to="-86813503#1" type="passenger"/>
    <trip id="veh192" depart="93.61" departLane="best" from="-617116128#4" to="-191131368" type="passenger"/>
    <trip id="veh193" depart="94.09" departLane="best" from="-67214798#9" to="239082213#20" type="passenger"/>
    <trip id="veh194" depart="94.58" departLane="best" from="191133840" to="-164379773" type="passenger"/>
    <trip id="veh195" depart="95.07" departLane="best" from="-163508463#1" to="163045547#0" type="passenger"/>
    <trip id="veh196" depart="95.56" departLane="best" from="164371206" to="-191309410" type="passenger"/>
    <trip id="veh197" depart="96.04" departLane="best" from="191157360" to="191132753#0" type="passenger"/>
    <trip id="veh198" depart="96.53" departLane="best" from="164379771" to="-191131705" type="passenger"/>
    <trip id="veh199" depart="97.02" departLane="best" from="-184735653#11" to="-162667845#0" type="passenger"/>
    <trip id="veh200" depart="97.51" departLane="best" from="-191131854" to="161269298#2" type="passenger"/>
    <trip id="veh201" depart="97.99" departLane="best" from="191311126#1" to="-163508450#9" type="passenger"/>
    <trip id="veh202" depart="98.48" departLane="best" from="-225209489#0" to="164379753#1" type="passenger"/>
    <trip id="veh203" depart="98.97" departLane="best" from="-164902628#0" to="191131303" type="passenger"/>
    <trip id="veh204" depart="99.46" departLane="best" from="-86813499#1" to="-191132262" type="passenger"/>
    <trip id="veh205" depart="99.94" departLane="best" from="164379753#0" to="-161948265#0" type="passenger"/>
    <trip id="veh206" depart="100.43" departLane="best" from="191132358" to="191133199#0" type="passenger"/>
    <trip id="veh207" depart="100.92" departLane="best" from="-164299592#1" to="-62277652#6" type="passenger"/>
    <trip id="veh208" depart="101.41" departLane="best" from="-164379774#8" to="67209995#10" type="passenger"/>
    <trip id="veh209" depart="101.89" departLane="best" from="162514066#4" to="-163508436#0" type="passenger"/>
    <trip id="veh210" depart="102.38" departLane="best" from="-191131985" to="191311958#1" type="passenger"/>
    <trip id="veh211" depart="102.87" departLane="best" from="-62277652#7" to="191134085#3" type="passenger"/>
    <trip id="veh212" depart="103.36" departLane="best" from="164379763#0" to="86769208#2" type="passenger"/>
    <trip id="veh213" depart="103.84" departLane="best" from="164033495#2" to="62277652#7" type="passenger"/>
    <trip id="veh214" depart="104.33" departLane="best" from="225209489#6" to="164371221#2" type="passenger"/>
    <trip id="veh215" depart="104.82" departLane="best" from="191131554" to="162667854#5" type="passenger"/>
    <trip id="veh216" depart="105.31" departLane="best" from="191307124" to="163508452#1" type="passenger"/>
    <trip id="veh217" depart="105.79" departLane="best" from="239082213#3" to="191132664#1" type="passenger"/>
    <trip id="veh218" depart="106.28" departLane="best" from="-67625627#0" to="-191132697" type="passenger"/>
    <trip id="veh219" depart="106.77" departLane="best" from="-191131889" to="164379760#2" type="passenger"/>
    <trip id="veh220" depart="107.26" departLane="best" from="164301680#7" to="-191133191" type="passenger"/>
    <trip id="veh221" depart="107.74" departLane="best" from="-163508454" to="-191133623" type="passenger"/>
    <trip id="veh222" depart="108.23" departLane="best" from="-191132657" to="-191157376#1" type="passenger"/>
    <trip id="veh223" depart="108.72" departLane="best" from="163045541" to="-164371228#1" type="passenger"/>
    <trip id="veh224" depart="109.21" departLane="best" from="-191131512" to="191131216" type="passenger"/>
    <trip id="veh225" depart="109.70" departLane="best" from="191131028#1" to="-163508445#8" type="passenger"/>
    <trip id="veh226" depart="110.18" departLane="best" from="-222850632" to="163508449#1" type="passenger"/>
    <trip id="veh227" depart="110.67" departLane="best" from="-225209489#12" to="-191131162" type="passenger"/>
    <trip id="veh228" depart="111.16" departLane="best" from="-239082213#1" to="239083276#2" type="passenger"/>
    <trip id="veh229" depart="111.65" departLane="best" from="163508459#2" to="191131268" type="passenger"/>
    <trip id="veh230" depart="112.13" departLane="best" from="191312141#0" to="191133117#1" type="passenger"/>
    <trip id="veh231" depart="112.62" departLane="best" from="-191312241" to="-161948265#0" type="passenger"/>
    <trip id="veh232" depart="113.11" departLane="best" from="-191308373" to="191132806" type="passenger"/>
    <trip id="veh233" depart="113.60" departLane="best" from="191311254#4" to="67209971#3" type="passenger"/>
    <trip id="veh234" depart="114.08" departLane="best" from="-225209489#8" to="191132689" type="passenger"/>
    <trip id="veh235" depart="114.57" departLane="best" from="163045547#1" to="164301686#2" type="passenger"/>
    <trip id="veh236" depart="115.06" departLane="best" from="-191131172" to="-191131606" type="passenger"/>
    <trip id="veh237" depart="115.55" departLane="best" from="-513658841#2" to="-162667854#6" type="passenger"/>
    <trip id="veh238" depart="116.03" departLane="best" from="-191157339#1" to="191130588#2" type="passenger"/>
    <trip id="veh239" depart="116.52" departLane="best" from="-222844241" to="-164379763#4" type="passenger"/>
    <trip id="veh240" depart="117.01" departLane="best" from="-67214798#1" to="-164301686#1" type="passenger"/>
    <trip id="veh241" depart="117.50" departLane="best" from="164301680#15" to="-162667847#7" type="passenger"/>
    <trip id="veh242" depart="117.98" departLane="best" from="-191319802#3" to="164033494#1" type="passenger"/>
    <trip id="veh243" depart="118.47" departLane="best" from="-162667847#1" to="164379765" type="passenger"/>
    <trip id="veh244" depart="118.96" departLane="best" from="-164371217" to="-85104167#9" type="passenger"/>
    <trip id="veh245" depart="119.45" departLane="best" from="-163508436#1" to="-222850633" type="passenger"/>
    <trip id="veh246" depart="119.93" departLane="best" from="-191130829#5" to="-191307185" type="passenger"/>
    <trip id="veh247" depart="120.42" departLane="best" from="191132753#0" to="-222850633" type="passenger"/>
    <trip id="veh248" depart="120.91" departLane="best" from="191132389" to="191309465" type="passenger"/>
    <trip id="veh249" depart="121.40" departLane="best" from="-191132064" to="-163508462#3" type="passenger"/>
    <trip id="veh250" depart="121.88" departLane="best" from="-162514072#1" to="163508446#2" type="passenger"/>
    <trip id="veh251" depart="122.37" departLane="best" from="86813807#7" to="-191311420" type="passenger"/>
    <trip id="veh252" depart="122.86" departLane="best" from="164379746" to="191133600" type="passenger"/>
    <trip id="veh253" depart="123.35" departLane="best" from="164379748#2" to="191132806" type="passenger"/>
    <trip id="veh254" depart="123.83" departLane="best" from="67209971#0" to="-191130829#1" type="passenger"/>
    <trip id="veh255" depart="124.32" departLane="best" from="-162514072#5" to="-164379753#0" type="passenger"/>
    <trip id="veh256" depart="124.81" departLane="best" from="-164301682#3" to="164902631#1" type="passenger"/>
    <trip id="veh257" depart="125.30" departLane="best" from="163508443#8" to="-191131554" type="passenger"/>
    <trip id="veh258" depart="125.78" departLane="best" from="191130720" to="191133130" type="passenger"/>
    <trip id="veh259" depart="126.27" departLane="best" from="-164379764" to="164371211#1" type="passenger"/>
    <trip id="veh260" depart="126.76" departLane="best" from="191132292" to="-164299604#0" type="passenger"/>
    <trip id="veh261" depart="127.25" departLane="best" from="191157373#2" to="67214798#17" type="passenger"/>
    <trip id="veh262" depart="127.73" departLane="best" from="-164299592#2" to="-162667847#3" type="passenger"/>
    <trip id="veh263" depart="128.22" departLane="best" from="-191133765" to="191130588#1" type="passenger"/>
    <trip id="veh264" depart="128.71" departLane="best" from="67209995#2" to="-268468399" type="passenger"/>
    <trip id="veh265" depart="129.20" departLane="best" from="191131347" to="-163508454" type="passenger"/>
    <trip id="veh266" depart="129.68" departLane="best" from="164886494#2" to="164379749#3" type="passenger"/>
    <trip id="veh267" depart="130.17" departLane="best" from="-164298199#1" to="191133268" type="passenger"/>
    <trip id="veh268" depart="130.66" departLane="best" from="191311126#2" to="164301682#4" type="passenger"/>
    <trip id="veh269" depart="131.15" departLane="best" from="-164301680#18" to="85104167#10" type="passenger"/>
    <trip id="veh270" depart="131.63" departLane="best" from="191133401" to="-191311254#1" type="passenger"/>
    <trip id="veh271" depart="132.12" departLane="best" from="-239083276#2" to="-191319802#0" type="passenger"/>