<?xml version="1.0" encoding="UTF-8"?>

<!-- generated on Sat Nov 10 22:38:13 2018 by SUMO duarouter Version 0.29.0
<?xml version="1.0" encoding="UTF-8"?>

<configuration xmlns:xsi="http://www.w3.org/2001/XMLSchema-instance" xsi:noNamespaceSchemaLocation="http://sumo.dlr.de/xsd/duarouterConfiguration.xsd">

    <input>
        <net-file value="osm.net.xml"/>
        <trip-files value="osm.passenger.trips.xml"/>
    </input>

    <output>
        <output-file value="osm.passenger.rou.xml"/>
    </output>

    <processing>
        <ignore-errors value="true"/>
    </processing>

    <time>
        <begin value="0"/>
        <end value="3600.0"/>
    </time>

    <report>
        <no-warnings value="true"/>
        <no-step-log value="true"/>
    </report>

</configuration>
-->

<routes xmlns:xsi="http://www.w3.org/2001/XMLSchema-instance" xsi:noNamespaceSchemaLocation="http://sumo.dlr.de/xsd/routes_file.xsd">
    <vType id="passenger" vClass="passenger"/>
    <vehicle id="veh0" type="passenger" depart="0.00" departLane="best">
        <route edges="164371221#2 -164371218#0 432587091#1 432587091#2 432587091#3 513658843#0 513658843#1 513658843#2 513658843#3 513658846#0 513658846#1 -162667847#1 -162667847#0"/>
    </vehicle>
    <vehicle id="veh1" type="passenger" depart="0.49" departLane="best">
        <route edges="-191132689 -191132328 -162667847#7 -162667847#6 -162667847#5 -162667847#4 513658842#6 513658842#7 513658842#8 513658854#0 513658847#2 513658849#0 513658849#1 513658849#2 513658849#3 513658849#4 617648695 617648696#0 617648696#1 617648696#2 617648696#3 617648696#4 -67214837#3 -67214837#2 -67214837#1 -67214837#0 -67214798#20 -67214798#19 -67214798#18 -67214798#17 -67214798#16 -67214798#15 84515004#0 84515004#1 84515004#2 -191131673"/>
    </vehicle>
    <vehicle id="veh2" type="passenger" depart="0.98" departLane="best">
        <route edges="191132035 -162667847#5 -162667847#4 513658842#6 513658842#7 513658842#8 513658854#0 513658847#2 513658849#0 513658849#1 513658849#2 513658849#3 513658849#4 -617427632 -191130587 -191130588#1 -191130588#0 191130585"/>
    </vehicle>
    <vehicle id="veh3" type="passenger" depart="1.46" departLane="best">
        <route edges="225209489#8 -225209489#8 -225209489#7 -225209489#6 -225209489#5 -225209489#4 -225209489#3 -225209489#2 -225209489#1 -225209489#0 304525875#2 304525875#3 304525875#4 304525875#5 617646475 617646472 264120321#0 264120321#1 264120321#2 264120321#3 264120321#4 264120321#5 264120321#6 264120321#7 264120321#8 420910011#1 67209976#0 617648696#3 617648696#4 67209975 191353111#1 191353111#2 191353111#3 191353111#4 -164033491#1 -164033491#0 -164033490#1"/>
    </vehicle>
    <vehicle id="veh4" type="passenger" depart="1.95" departLane="best">
        <route edges="-239082213#14 -239082213#13 -239082213#12 -239082213#11 -239082213#10 -239082213#9 -239082213#8 -239082213#7 -239082213#6 -239082213#5 -239082213#4 -239082213#3 -239082213#2 -239082213#1 -67210000 -67209995#14 -67209995#13 86769208#0 86769208#1 86769208#2 86769208#3 86769208#4 239152749 86813675#0 86813675#1 -162667862#1 -162667862#0"/>
    </vehicle>
    <vehicle id="veh5" type="passenger" depart="2.44" departLane="best">
        <route edges="-191131166 -191132328 -162667847#7 -162667847#6 -162667847#5 -162667847#4 513658842#6 513658842#7 513658842#8 513658854#0 513658848 513658841#0 513658841#1 162667855"/>
    </vehicle>
    <vehicle id="veh6" type="passenger" depart="2.93" departLane="best">
        <route edges="-162667845#1 162514072#1 513658842#2 513658842#3 513658842#4 513658842#5 513658842#6 513658842#7 513658842#8 513658854#0 513658847#2 513658849#0 513658849#1 513658849#2 513658849#3 513658849#4 617648695 -164248635#5 -164248635#4 163508460#0 163508460#1 163508460#2 164299592#3 164299592#4 164371220#0 164371220#1 164371207#2 -191134124 -191132759 -191131695#0 -191130809"/>
    </vehicle>
    <vehicle id="veh7" type="passenger" depart="3.41" departLane="best">
        <route edges="164379746 164379759#4 164379759#5 -163508445#13 163508450#7 163508450#8 163508450#9 163508450#10 163508450#11 163508450#12 163508450#13 163508450#14"/>
    </vehicle>
    <vehicle id="veh8" type="passenger" depart="3.90" departLane="best">
        <route edges="-191131172 -191132100 -191131554 -191132146 67209995#12 67209995#13 191130585 191130588#1 191130587 617427632 617648695 -164248635#5 -164248635#4 -164248635#3 -164299598#2 -164299598#1 163508443#8 164299602#1"/>
    </vehicle>
    <vehicle id="veh9" type="passenger" depart="4.39" departLane="best">
        <route edges="191134085#2 -162667854#6 -162667854#5 -162667854#4 513658842#8 513658854#0 513658847#2 513658849#0 513658849#1 513658849#2 513658849#3 513658849#4 -617427632 -191130587 -191130588#1 -191130588#0 -67209995#13 -67209995#12 -67209995#11 -67209995#10 -67209995#9 -67209995#8 -67209995#7 -67209995#6 -67209995#5 -67209995#3 -67209995#2 -67209995#1 -67209995#0 67625627#0 67625627#1 -62269460#3 -161948265#1 -161948265#0"/>
    </vehicle>
    <vehicle id="veh10" type="passenger" depart="4.88" departLane="best">
        <route edges="191134033 163508440#0 191130588#1 191130587 617427632 617648695 617648696#0 617648696#1 617648696#2 617648696#3 617648696#4 -67214837#3 -67214837#2 -67214837#1 -67214837#0 -67214798#20 -67214798#19 -67214798#18 -67214798#17 -67214798#16 -67214798#15 -67214798#14 -67214798#12 -67214798#11 -67214798#10 -67214798#9 -67214798#8 191133268 191131347"/>
    </vehicle>
    <vehicle id="veh11" type="passenger" depart="5.36" departLane="best">
        <route edges="-191157359#2 -191157359#1 191157376#3 191157376#4 -239082213#5 -239082213#4 -239082213#3 -239082213#2 -239082213#1 -67210000 -67209995#14 -67209995#13 -67209995#12 -67209995#11 -67209995#10 -67209995#9 -67209995#8 164379774#3 164379774#4 164379774#5 164379774#6 164379774#7 164379774#8 -163508450#8 -163508450#7 -163508450#6 164379785#0 -164379759#2 -164379757"/>
    </vehicle>
    <vehicle id="veh12" type="passenger" depart="5.85" departLane="best">
        <route edges="67209995#12 67209995#13 67209995#14 67210000 67209971#0 67209971#1 67209971#2 -84515004#21 -84515004#20 -84515004#19 -84515004#18 -84515004#17 -84515004#16 -84515004#15 -84515004#14 -84515004#13 -84515004#12 -84515004#11 -84515004#10 191132151 -191133393 -191133535 -191133829 -191311314 -191307124 191310034 -191310034"/>
    </vehicle>
    <vehicle id="veh13" type="passenger" depart="6.34" departLane="best">
        <route edges="-164033495#2 191131740#1 191353111#3 191353111#4 191353111#5 191353111#6 191353111#7 264120321#1 264120321#2 264120321#3 264120321#4 264120321#5 264120321#6 264120321#7 264120321#8 -163508465#1 -163508465#0 67209971#8 67209971#9 67209971#10 67209971#11 67209971#12 -163508430 -164248635#3 -164248635#2"/>
    </vehicle>
    <vehicle id="veh14" type="passenger" depart="6.83" departLane="best">
        <route edges="191310975 -191308478 86813807#4 86813807#5 -161269299#8 -161269299#7 -161269299#6 -161269299#5 -161269299#4 -161269299#3 -161269299#2 -161269299#1 -161269299#0 67214798#3 67214798#4 67214798#6 67214798#7 67214798#8 67214798#9 67214798#10 67214798#11 67214798#12 67214798#14 67214798#15 67214798#16 67214798#17 67214798#18 67214798#19 67214798#20 67214798#21 67214837#1 67214837#2 -163508434#6 -163508434#5 191130829#0 -67209971#3 -67209971#2 -67209971#1 -67209971#0 -67210000 -67209995#14 -67209995#13 -67209995#12 -67209995#11 -67209995#10 -67209995#9 164301686#3"/>
    </vehicle>
    <vehicle id="veh15" type="passenger" depart="7.31" departLane="best">
        <route edges="191134046#3 84515004#12 191133940 -191132345 191133969 -191133219 191133808 191132657 191132153"/>
    </vehicle>
    <vehicle id="veh16" type="passenger" depart="7.80" departLane="best">
        <route edges="163045535#2 -163045535#2 -163045535#1 86813503#3 -239152749 -86769208#4 -86769208#3 -86769208#2 -86769208#1 -86769208#0 67209995#13 67209995#14 67210000 67209971#0 67209971#1 67209971#2 -84515004#21 -84515004#20 -84515004#19 -84515004#18 -84515004#17 -84515004#16 -84515004#15 -84515004#14 -84515004#13 -84515004#12 84515004#12"/>
    </vehicle>
    <vehicle id="veh17" type="passenger" depart="8.29" departLane="best">
        <route edges="-191312069 -191307214 -191308478 86813807#4 86813807#5 -161269299#8 -161269299#7 -161269299#6 -161269299#5 -161269299#4 -161269299#3 -161269299#2 -161269299#1 -161269299#0 67214798#3 67214798#4 67214798#6 67214798#7 67214798#8 67214798#9 67214798#10 67214798#11 67214798#12 67214798#14 67214798#15 67214798#16 67214798#17 67214798#18 67214798#19 67214798#20 67214798#21 67214837#1 67214837#2 -163508434#6 -163508434#5 191130829#0 -67209971#3 -67209971#2 -67209971#1 -67209971#0 -67210000 -67209995#14 -67209995#13 -67209995#12 -67209995#11 -67209995#10 -617427639#1 -617427639#0 86813503#0 86813503#1 -163045545#7 163508456#0 163508455"/>
    </vehicle>
    <vehicle id="veh19" type="passenger" depart="9.26" departLane="best">
        <route edges="191312934 -191132948 -191131322 -191132798 -191132660 -191132945 191133801 -191134045 -191133854 191131791 191133021 191133071 191133181 191133265 191132389 191131768 191130829#0 67209971#4 67209971#5 67209971#7 67209971#8 67209971#9 67209971#10 67209971#11 67209971#12 -163508430 -164248635#3 -164248635#2 164298202#0"/>
    </vehicle>
    <vehicle id="veh20" type="passenger" depart="9.75" departLane="best">
        <route edges="191130957 -184735653#10 -184735653#9 -184735653#8 -184735653#7 -184735653#6 -184735653#5 -184735653#3 -184735653#2 -184735653#1 -184735653#0 -163508460#1 -163508460#0 164248635#4 164248635#5 617648689 617648693#0 617648693#1 617648693#2 432587091#1 432587091#2 432587091#3 513658843#0 -191353114#1 -191353114#0 617116128#1 617116128#2 -163045550#0"/>
    </vehicle>
    <vehicle id="veh21" type="passenger" depart="10.24" departLane="best">
        <route edges="-163508458#3 163508458#3 163508458#4 163508458#5 191131877 191133940 191132739 191134008 191134031 191132717 -191131925"/>
    </vehicle>
    <vehicle id="veh22" type="passenger" depart="10.73" departLane="best">
        <route edges="-164298198#1 -164298198#0 -62277652#5 -164299592#13 -164299592#12 -164299592#11 -164299592#10 -164299592#9 -164299592#7 -164299592#6 -164299592#5 -164299592#4 -164299592#3 -184735653#0 -163508460#1 -163508460#0 164248635#4 164248635#5 617648689 617648693#0 513658849#4 -617427632 -191130587 -191130588#1 -191130588#0 -67209995#13 -67209995#12 -67209995#11 -67209995#10 -617427639#1 191131424 -191133293"/>
    </vehicle>
    <vehicle id="veh23" type="passenger" depart="11.21" departLane="best">
        <route edges="164371211#0 164371211#1 67209995#1 67209995#2 67209995#3 67209995#5 67209995#6 67209995#7 -164379774#2 -164379774#1 164301680#11 164301680#12 164301680#13 164301680#14 164301680#15 164301680#16 -191133117#1 191319790 -191319790"/>
    </vehicle>
    <vehicle id="veh24" type="passenger" depart="11.70" departLane="best">
        <route edges="-191311254#2 191311254#2 191311254#3 191313075#1 191311958#0 -191319802#1 -191319802#0 -85104166#1 -85104166#0 -84515004#10 -191133934 -191134045 -191133854 191133969 -191133219 -191131613 -191131606 -191131317 -191132133 -191131211 -191131303 -191131249"/>
    </vehicle>
    <vehicle id="veh25" type="passenger" depart="12.19" departLane="best">
        <route edges="-191132389 191131274 191131925 -67214837#0 -67214798#20 616912387 191353111#1 191353111#2 191353111#3 191353111#4 191353111#5 191353111#6 191353111#7 191353111#8 617646476 617646475"/>
    </vehicle>
    <vehicle id="veh26" type="passenger" depart="12.68" departLane="best">
        <route edges="164371235#3 164371235#4 -191353145#2 -191353145#1 191133199#0 513658849#4 -617427632 -191130587 -191130588#1 -191130588#0 -67209995#13 -67209995#12 -67209995#11 -67209995#10 -67209995#9 -67209995#8 -67209995#7 -67209995#6 -67209995#5 -67209995#3 -67209995#2 -67209995#1 -67209995#0 67625627#0 67625627#1 -62269460#3 -62269460#2 -62269460#1 -62269460#0 -62269456#1 -62269456#0 -62269548#7 -62269548#6 164371206 164371217"/>
    </vehicle>
    <vehicle id="veh27" type="passenger" depart="13.16" departLane="best">
        <route edges="-164379770#0 -163508445#7 164371228#0 164371228#1 67209995#7 67209995#8 67209995#9 67209995#10 67209995#11 67209995#12 67209995#13 67209995#14 67210000 67209971#0 67209971#1 67209971#2 -84515004#21 -84515004#20 -84515004#19 -84515004#18 -84515004#17 -84515004#16 -84515004#15 -84515004#14 -84515004#13 -84515004#12 -84515004#11 -84515004#10 191132151"/>
    </vehicle>
    <vehicle id="veh28" type="passenger" depart="13.65" departLane="best">
        <route edges="-164379760#1 164379760#1 164371211#0 164371211#1 67209995#1 67209995#2 67209995#3 67209995#5 67209995#6 67209995#7 67209995#8 67209995#9 67209995#10 67209995#11 67209995#12 67209995#13 67209995#14 67210000 67209971#0 67209971#1 67209971#2 67209971#3 67209971#4 67209971#5 617648696#3 617648696#4 67209975 191353111#1 191353111#2 191353111#3 191353111#4 -164033491#1 -164033491#0 -164033490#1 -222850634"/>
    </vehicle>
    <vehicle id="veh29" type="passenger" depart="14.14" departLane="best">
        <route edges="86813499#2 -164299592#9 -164299592#7 -164299592#6 -164299592#5 -164299592#4 -164299592#3 -184735653#0 -163508460#1 -163508460#0 164248635#4 164248635#5 617648689 617648693#0 513658849#4 -617427632 -191130587 -191130588#1 -191130588#0 -67209995#13 -67209995#12 -67209995#11 -67209995#10 -67209995#9 -67209995#8 164379774#3 164379774#4 164379774#5 164379774#6 164379774#7 164379774#8 163508450#9 -164379783 -164379744 -164379763#3 -164379763#2 164379763#2"/>
    </vehicle>
    <vehicle id="veh30" type="passenger" depart="14.63" departLane="best">
        <route edges="163508437#0 163508437#1 -163508463#2 -163508463#1 -163508463#0 -164299604#4 164299592#2 164299592#3 164299592#4 164371220#0 164371220#1 164371207#2 -191134124 -191132759 -191131695#0 191130831"/>
    </vehicle>
    <vehicle id="veh31" type="passenger" depart="15.11" departLane="best">
        <route edges="191310258 -191310258 164389324#0 191310954 191310969 191312684 191313074 191311193 -239082213#15 -239082213#14 -239082213#13 -239082213#12 -239082213#11 85104166#6 191311284 -191312474 164301684#0 164301684#1 164301684#2 164379753#0 164379753#1 164379753#2 -191134087#3 191309086 -164379784#3 -164379784#2 -164379784#1 -164379784#0 191133385#1"/>
    </vehicle>
    <vehicle id="veh32" type="passenger" depart="15.60" departLane="best">
        <route edges="-191131476 -191133668 -184735653#5 -184735653#3 -184735653#2 -184735653#1 -184735653#0 -163508460#1 -163508460#0 164248635#4 164248635#5 617648689 617648693#0 617648693#1 617648693#2 432587091#1 432587091#2 432587091#3 513658843#0 -162667842#0 -162667841#1 162667862#0 162667862#1 513658841#3 163045545#2 163045545#3 163045545#4 163045545#5 -163045535#4"/>
    </vehicle>
    <vehicle id="veh33" type="passenger" depart="16.09" departLane="best">
        <route edges="-191133813 -184735653#8 -184735653#7 -184735653#6 -184735653#5 -184735653#3 -184735653#2 -184735653#1 -164299592#2 -164299592#1 -164299592#0 264120321#7 264120321#8 420910011#1 67209976#0 617648696#3 617648696#4 -67214837#3 -67214837#2 -67214837#1 -67214837#0 -67214798#20 -67214798#19 -191132983"/>
    </vehicle>
    <vehicle id="veh34" type="passenger" depart="16.58" departLane="best">
        <route edges="-191130829#2 -191130829#1 -67209971#3 -67209971#2 -67209971#1 -67209971#0 -67210000 -67209995#14 -67209995#13 -67209995#12 -67209995#11 -67209995#10 -67209995#9 -67209995#8 -67209995#7 -67209995#6 -67209995#5 -67209995#3 -67209995#2 -67209995#1 -67209995#0 67625627#0 67625627#1 -62269460#3 62269460#3"/>
    </vehicle>
    <vehicle id="veh35" type="passenger" depart="17.06" departLane="best">
        <route edges="191353114#1 513658843#1 513658847#2 513658849#0 513658849#1 513658849#2 513658849#3 513658849#4 617648695 617648696#0 617648696#1 617648696#2 617648696#3 617648696#4 67209975 191353111#1 191353111#2 191353111#3 191353111#4 -164033491#1 -164033491#0 -164033490#1 -222850634 -191157343#1 -191157343#0"/>
    </vehicle>
    <vehicle id="veh36" type="passenger" depart="17.55" departLane="best">
        <route edges="164379751 164371211#1 -67209995#0 67625627#0 67625627#1 -62269460#3 -62269460#2 -62269460#1 -62269460#0 -62269456#1 -62269456#0 -62269548#7 -62269548#6 -268468399"/>
    </vehicle>
    <vehicle id="veh37" type="passenger" depart="18.04" departLane="best">
        <route edges="513658842#0 513658842#1 513658842#2 513658842#3 513658842#4 513658842#5 513658842#6 513658842#7 513658842#8 513658854#0 513658847#2 513658849#0 513658849#1 513658849#2 513658849#3 513658849#4 -617427632 -191130587 -191130588#1 -191130588#0 -67209995#13 -67209995#12 -67209995#11 -67209995#10 -67209995#9 -67209995#8 -67209995#7 -67209995#6 -67209995#5 -67209995#3 -67209995#2 -67209995#1 -67209995#0 67625627#0 85104167#11 -85104167#11"/>
    </vehicle>
    <vehicle id="veh38" type="passenger" depart="18.53" departLane="best">
        <route edges="-191132335 164301680#9 164301680#10 164379774#1 164379774#2 67209995#8 67209995#9 -617427639#1 -191133055 -191131172 -191132301"/>
    </vehicle>
    <vehicle id="veh39" type="passenger" depart="19.01" departLane="best">
        <route edges="163508441#4 -163508453#0 -191133356 163508436#5 -191132039 -191131424 -191133055 -191132781"/>
    </vehicle>
    <vehicle id="veh40" type="passenger" depart="19.50" departLane="best">
        <route edges="163508460#0 -163508460#0 164248635#4 164248635#5 617648689 617648693#0 513658849#4 -617427632 -191130587 -191130588#1 -191130588#0 67209995#14 67210000 239082213#1 239082213#2 239082213#3 239082213#4 239082213#5 239082213#6 239082213#7 239082213#8 239082213#9 239082213#10 239082213#11 239082213#12 239082213#13"/>
    </vehicle>
    <vehicle id="veh41" type="passenger" depart="19.99" departLane="best">
        <route edges="-191353135 -191353145#1 191133199#0 513658849#4 617648695 617648696#0 617648696#1 617648696#2 617648696#3 617648696#4 -67214837#3 -67214837#2 -67214837#1 -67214837#0 -67214798#20 -67214798#19 -67214798#18 191131211 191132133 191131317 191131606 -191131606"/>
    </vehicle>
    <vehicle id="veh42" type="passenger" depart="20.48" departLane="best">
        <route edges="86813807#0 161269298#0 161269298#1 161269298#2 161269298#3 161269298#4 161269298#5 161269298#6 67214798#1 67214798#2 67214798#3 67214798#4 67214798#6 67214798#7 67214798#8 67214798#9 67214798#10 67214798#11 67214798#12 67214798#14 67214798#15 67214798#16 67214798#17 67214798#18 67214798#19 67214798#20 67214798#21 67214837#1 67214837#2 -163508434#6 -163508434#5 191130829#0 -67209971#3 -67209971#2 -67209971#1 -67209971#0 -67210000 -67209995#14 -67209995#13 86769208#0 86769208#1 86769208#2 86769208#3 86769208#4 239152749 -86813503#3 163045535#1 163045535#2 163045537#0 163045537#1"/>
    </vehicle>
    <vehicle id="veh43" type="passenger" depart="20.96" departLane="best">
        <route edges="-164033494#4 -164033494#3 164033490#0 164033490#1 164033490#2 191157373#2 191353111#6 191353111#7 264120321#1 264120321#2 264120321#3 264120321#4 264120321#5 264120321#6 164299592#0 164299592#1 164299604#4 617648685 163508463#1 163508463#2 -163508437#1 -163508432#1"/>
    </vehicle>
    <vehicle id="veh44" type="passenger" depart="21.45" departLane="best">
        <route edges="-164299592#7 -164299592#6 -164299592#5 -164299592#4 -164299592#3 -184735653#0 -163508460#1 -163508460#0 164248635#4 164248635#5 617648689 617648693#0 513658849#4 -617427632 -191130587 -191130588#1 -191130588#0 -67209995#13 -67209995#12 -67209995#11 -67209995#10 -67209995#9 164301686#3 -164379749#5 -164379749#4 -164379749#3 164379749#3"/>
    </vehicle>
    <vehicle id="veh45" type="passenger" depart="21.94" departLane="best">
        <route edges="191133781 -163508446#0 -163508434#2 -163508434#1 -67209971#0 -67210000 -67209995#14 191130585 191130588#1 191130587 617427632 617648695 -164248635#5 -164248635#4 163508460#0 163508460#1 163508460#2 164299592#3 164299592#4 164299592#5 164299592#6 164299592#7 164299592#9 -86813499#2 -86813499#1 -86813499#0 -62277652#0"/>
    </vehicle>
    <vehicle id="veh46" type="passenger" depart="22.43" departLane="best">
        <route edges="-163508445#6 -163508445#4 -164379774#4 -164379774#3 67209995#8 67209995#9 67209995#10 67209995#11 67209995#12 67209995#13 67209995#14 67210000 67209971#0 67209971#1 67209971#2 67209971#3 67209971#4 67209971#5 67209971#7 67209971#8 -163508463#4 -163508463#3 -163508463#2 -163508463#1 -163508463#0 -164299604#4 -164299592#1 -222850639 222850640#1 222850640#2 -222850640#2"/>
    </vehicle>
    <vehicle id="veh47" type="passenger" depart="22.91" departLane="best">
        <route edges="86813807#0 161269298#0 161269298#1 161269298#2 161269298#3 161269298#4 161269298#5 161269298#6 67214798#1 67214798#2 67214798#3 67214798#4 67214798#6 67214798#7 67214798#8 67214798#9 67214798#10 67214798#11 67214798#12 67214798#14 67214798#15 67214798#16 67214798#17 67214798#18 67214798#19 67214798#20 67214798#21 67214837#1 67214837#2 -163508434#6 -163508434#5 191130829#0 -67209971#3 84515004#22 163508440#0 163508440#1"/>
    </vehicle>
    <vehicle id="veh48" type="passenger" depart="23.40" departLane="best">
        <route edges="84514785#2 -84514785#2 -84514785#1 -191131693 -191133267 67214798#17 67214798#18 67214798#19 67214798#20 67214798#21 67214837#1 67214837#2 -163508434#6 -163508434#5 191130829#0 -67209971#3 -67209971#2 -67209971#1 -67209971#0 -67210000 -67209995#14 -67209995#13 -67209995#12 -67209995#11 -67209995#10 -67209995#9 -67209995#8 -164379774#2 -164379774#1 -164379774#0 164371228#8 -191319794#1 -191319794#0 191319794#0"/>
    </vehicle>
    <vehicle id="veh49" type="passenger" depart="23.89" departLane="best">
        <route edges="-162514066#3 -164371206 62269548#6 62269548#7 62269548#8 62269456#1 62269456#2 62269460#1 62269460#2 62269460#3 -67625627#1 -67625627#0 67209995#0 67209995#1 67209995#2 67209995#3 67209995#5 67209995#6 67209995#7 67209995#8 67209995#9 67209995#10 67209995#11 67209995#12 67209995#13 67209995#14 67210000 67209971#0 67209971#1 67209971#2 67209971#3 67209971#4 67209971#5 617648696#3 617648696#4 -67214837#3 -67214837#2 -67214837#1 -191131925 191131925"/>
    </vehicle>
    <vehicle id="veh50" type="passenger" depart="24.38" departLane="best">
        <route edges="164379781#1 -164379781#1 -164379781#0 164379760#1 164371211#0 164371211#1 67209995#1 67209995#2 67209995#3 67209995#5 67209995#6 67209995#7 164379774#3 164379774#4 -163508445#3 163508445#3"/>
    </vehicle>
    <vehicle id="veh51" type="passenger" depart="24.86" departLane="best">
        <route edges="-191132389 191132389 191131768 191130829#0 -67209971#3 -67209971#2 -67209971#1 -67209971#0 -67210000 -67209995#14 -67209995#13 -67209995#12 -67209995#11 -67209995#10 -67209995#9 -67209995#8 164379774#3 164379774#4 164379774#5 164379774#6 164379774#7 164379774#8 163508450#9 163508450#10 -164379763#5 164379763#5"/>
    </vehicle>
    <vehicle id="veh52" type="passenger" depart="25.35" departLane="best">
        <route edges="-164299594#3 -164299594#2 191132604#0 191132604#1 -164299592#6 -164299592#5 -164299592#4 -164299592#3 -184735653#0 -163508460#1 -163508460#0 164248635#4 164248635#5 617648689 617648693#0 513658849#4 -617427632 -191130587 -191130588#1 -191130588#0 -67209995#13 -67209995#12 -67209995#11 -67209995#10 -67209995#9"/>
    </vehicle>
    <vehicle id="veh53" type="passenger" depart="25.84" departLane="best">
        <route edges="-62269548#7 62269548#7 62269548#8 62269456#1 62269456#2 62269460#1 62269460#2 62269460#3 -67625627#1 -67625627#0 67209995#0 67209995#1 67209995#2 67209995#3 67209995#5 67209995#6 67209995#7 67209995#8 67209995#9 67209995#10 67209995#11 67209995#12 67209995#13 67209995#14 67210000 67209971#0 67209971#1 67209971#2 67209971#3 67209971#4"/>
    </vehicle>
    <vehicle id="veh54" type="passenger" depart="26.33" departLane="best">
        <route edges="191353111#8 617646476 617646475 617646472 264120321#0 264120321#1 264120321#2 264120321#3 264120321#4 264120321#5 264120321#6 264120321#7 264120321#8 420910011#1 67209976#0 617648696#3 617648696#4 -67214837#3 -67214837#2 -67214837#1 -191132717 -191134031 -191134008 -191131381 -191132345 191133854 191134045 -191133801 191132945 191132660 191132798 -191132798"/>
    </vehicle>
    <vehicle id="veh55" type="passenger" depart="26.81" departLane="best">
        <route edges="513658841#0 -513658841#0 -513658848 513658847#2 513658849#0 513658849#1 513658849#2 513658849#3 513658849#4 617648695 617648696#0 617648696#1 617648696#2 617648696#3 617648696#4 67209975 191353111#1 191353111#2 191353111#3 191353111#4 191353111#5 191353111#6 191353111#7 191353111#8"/>
    </vehicle>
    <vehicle id="veh56" type="passenger" depart="27.30" departLane="best">
        <route edges="-191133287 -191130587 -191130588#1 -191130588#0 -67209995#13 -67209995#12 -67209995#11 -67209995#10 -67209995#9 164301686#3 -164379749#5 -164379749#4 164379762#0 164379762#1"/>
    </vehicle>
    <vehicle id="veh57" type="passenger" depart="27.79" departLane="best">
        <route edges="164299592#1 -164299592#1 -164299592#0 264120321#7 264120321#8 420910011#1 67209976#0 -67209971#5 -67209971#4 -67209971#3 -67209971#2 -67209971#1 -67209971#0 -67210000 -67209995#14 -67209995#13 -67209995#12 -67209995#11 -67209995#10 -67209995#9 -67209995#8 -67209995#7 -67209995#6 -67209995#5 -67209995#3 -67209995#2 -164379748#7 -164379748#5 -164379748#4 -164379748#3 -164379748#2 -164379748#1 -164379748#0 191134087#1 191134087#2 191134087#3 -164379753#2 -164379753#1"/>
    </vehicle>
    <vehicle id="veh58" type="passenger" depart="28.28" departLane="best">
        <route edges="191132781 -191131172 -191132100 -191131554 -191132146 67209995#12 67209995#13 67209995#14 67210000 67209971#0 163508434#1 163508434#2 163508446#0 163508446#2"/>
    </vehicle>
    <vehicle id="veh59" type="passenger" depart="28.76" departLane="best">
        <route edges="-161269298#1 161269298#1 161269298#2 161269298#3 -191312801 -191310393 -191310105 -191310110 -191308956 191312684 191313074 191311193 -239082213#15 -191306570"/>
    </vehicle>
    <vehicle id="veh60" type="passenger" depart="29.25" departLane="best">
        <route edges="-162514072#1 162514072#1 513658842#2 513658842#3 513658842#4 513658842#5 513658842#6 513658842#7 513658842#8 513658854#0 513658847#2 513658849#0 513658849#1 513658849#2 513658849#3 513658849#4"/>
    </vehicle>
    <vehicle id="veh61" type="passenger" depart="29.74" departLane="best">
        <route edges="191353145#1 -191353145#1 191133199#0 513658849#4 -617427632 -191130587 -191130588#1 -191130588#0 67209995#14 67210000 239082213#1 239082213#2 239082213#3 239082213#4 239082213#5 -191157376#4 -191157376#3 -191157376#2 163508458#4 -191309431 191309431"/>
    </vehicle>
    <vehicle id="veh62" type="passenger" depart="30.23" departLane="best">
        <route edges="-191133635 84515004#15 84515004#16 84515004#17 84515004#18 84515004#19 84515004#20 84515004#21 67209971#3 67209971#4 67209971#5 67209971#7 67209971#8 -163508463#4 -163508463#3 -163508437#1 -163508437#0 -163508443#2"/>
    </vehicle>
    <vehicle id="veh63" type="passenger" depart="30.71" departLane="best">
        <route edges="191353135 617648693#2 432587091#1 513658849#1 513658849#2 513658849#3 513658849#4 -617427632 -191130587 -191130588#1 -191130588#0 -67209995#13 -67209995#12 -67209995#11 -67209995#10 -67209995#9 -67209995#8 -67209995#7 -67209995#6 -67209995#5 -67209995#3 -67209995#2 -67209995#1 -67209995#0 67625627#0 67625627#1 -62269460#3 -62269460#2 -62269460#1 -62269460#0 -62269456#1 -62269456#0 -62269548#7 62269548#7"/>
    </vehicle>
    <vehicle id="veh64" type="passenger" depart="31.20" departLane="best">
        <route edges="-163508463#3 163508463#3 163508463#4 -67209971#8 -67209971#7 -67209971#5 -67209971#4 -67209971#3 -67209971#2 -67209971#1 -67209971#0 -67210000 -67209995#14 -67209995#13 -67209995#12 -67209995#11 -67209995#10 -67209995#9 -67209995#8 -67209995#7 -67209995#6 -67209995#5 -67209995#3 -67209995#2 -67209995#1 -67209995#0 67625627#0 67625627#1 -62269460#3 -62269460#2 -62269460#1 -62269460#0 -62269456#1 -62269456#0 -62269548#7 -62269548#6 -62269548#4 162514071#0 162514066#4"/>
    </vehicle>
    <vehicle id="veh65" type="passenger" depart="31.69" departLane="best">
        <route edges="-163508450#1 163508450#1 163508450#2 163508450#4 163508450#6 163508450#7 163508450#8 -164379774#8 -164379774#7 -164379774#6 -164379774#5 -164379774#4 -164379774#3 67209995#8 67209995#9 67209995#10 67209995#11 67209995#12 67209995#13 67209995#14 67210000 239082213#1 239082213#2 191133078 191133708 191133014#1"/>
    </vehicle>
    <vehicle id="veh66" type="passenger" depart="32.18" departLane="best">
        <route edges="191132930 164299602#2 -164299594#0 -164299592#4 -164299592#3 -184735653#0 -163508460#1 -163508460#0 164248635#4 164248635#5 617648689 617648693#0 513658849#4 -617427632 -191130587 -191130588#1 -191130588#0 -67209995#13 -67209995#12 -67209995#11 -67209995#10 -67209995#9 164301686#3 -164301686#3"/>
    </vehicle>
    <vehicle id="veh67" type="passenger" depart="32.66" departLane="best">
        <route edges="-84514785#0 67214798#16 67214798#17 67214798#18 67214798#19 67214798#20 67214798#21 67214837#1 67214837#2 -163508434#6 -163508434#5 191130829#0 -67209971#3 -67209971#2 -67209971#1 -67209971#0 -67210000 -67209995#14 -67209995#13 -67209995#12 -67209995#11 -67209995#10 -67209995#9 164301686#3 164301686#4 -191131328 163508453#0 163508453#1 163508453#2"/>
    </vehicle>
    <vehicle id="veh68" type="passenger" depart="33.15" departLane="best">
        <route edges="-191132335 164301680#9 164301680#10 164379774#1 164379774#2 67209995#8 67209995#9 67209995#10 67209995#11 67209995#12 67209995#13 191130585 191130588#1 191130587 617427632 617648695 617648696#0 191130829#5 191353123"/>
    </vehicle>
    <vehicle id="veh69" type="passenger" depart="33.64" departLane="best">