<?xml version="1.0" ?><!-- generated on Thu Nov 23 01:59:59 2017 by SUMO netconvert Version 0.29.0
<?xml version="1.0" encoding="UTF-8"?>

<configuration xmlns:xsi="http://www.w3.org/2001/XMLSchema-instance" xsi:noNamespaceSchemaLocation="http://sumo.dlr.de/xsd/netconvertConfiguration.xsd">

    <input>
        <type-files value="custom-osmNetconvert.typ.xml"/>
        <osm-files value="west2-7F.osm"/>
    </input>

    <output>
        <output-file value="west2-7F.net.xml"/>
    </output>

    <projection>
        <proj.utm value="true"/>
    </projection>

</configuration>
--><net version="0.27" xmlns:xsi="http://www.w3.org/2001/XMLSchema-instance" xsi:noNamespaceSchemaLocation="http://sumo.dlr.de/xsd/net_file.xsd">

    <location convBoundary="0.00,0.00,148.66,58.99" netOffset="-612979.92,-3718000.53" origBoundary="130.217646,33.595759,130.219249,33.596277" projParameter="+proj=utm +zone=52 +ellps=WGS84 +datum=WGS84 +units=m +no_defs"/>

    <type allow="pedestrian" id="highway.bridleway" numLanes="1" oneway="1" priority="1" speed="2.78" width="2.00"/>
    <type allow="bus" id="highway.bus_guideway" numLanes="1" oneway="1" priority="1" speed="8.33"/>
    <type allow="pedestrian" id="highway.corridor" numLanes="1" oneway="1" priority="1" speed="2.78" width="2.00"/>
    <type allow="bicycle" id="highway.cycleway" numLanes="1" oneway="0" priority="1" speed="5.56" width="1.00"/>
    <type allow="pedestrian" id="highway.footway" numLanes="1" oneway="1" priority="1" speed="2.78" width="2.00"/>
    <type allow="army" id="highway.ford" numLanes="1" oneway="0" priority="1" speed="2.78"/>
    <type disallow="tram rail_urban rail rail_electric ship" id="highway.living_street" numLanes="1" oneway="0" priority="3" speed="2.78"/>
    <type allow="private emergency authority army vip passenger hov taxi bus coach delivery truck trailer motorcycle evehicle custom1 custom2" id="highway.motorway" numLanes="2" oneway="1" priority="13" speed="44.44"/>
    <type allow="private emergency authority army vip passenger hov taxi bus coach delivery truck trailer motorcycle evehicle custom1 custom2" id="highway.motorway_link" numLanes="1" oneway="1" priority="12" speed="22.22"/>
    <type allow="bicycle pedestrian" id="highway.path" numLanes="1" oneway="1" priority="1" speed="2.78" width="2.00"/>
    <type allow="pedestrian" id="highway.pedestrian" numLanes="1" oneway="1" priority="1" speed="2.78" width="2.00"/>
    <type disallow="tram rail_urban rail rail_electric ship" id="highway.primary" numLanes="2" oneway="0" priority="9" speed="27.78"/>
    <type disallow="tram rail_urban rail rail_electric ship" id="highway.primary_link" numLanes="1" oneway="0" priority="8" speed="22.22"/>
    <type allow="vip" id="highway.raceway" numLanes="2" oneway="0" priority="14" speed="83.33"/>
    <type disallow="tram rail_urban rail rail_electric ship" id="highway.residential" numLanes="1" oneway="0" priority="4" speed="13.89"/>
    <type disallow="tram rail_urban rail rail_electric ship" id="highway.secondary" numLanes="2" oneway="0" priority="7" speed="27.78"/>
    <type disallow="tram rail_urban rail rail_electric ship" id="highway.secondary_link" numLanes="1" oneway="0" priority="6" speed="22.22"/>
    <type allow="delivery bicycle pedestrian" id="highway.service" numLanes="1" oneway="0" priority="2" speed="5.56"/>
    <type disallow="tram rail_urban rail rail_electric ship" id="highway.services" numLanes="1" oneway="0" priority="1" speed="8.33"/>
    <type allow="pedestrian" id="highway.stairs" numLanes="1" oneway="1" priority="1" speed="1.39" width="2.00"/>
    <type allow="pedestrian" id="highway.step" numLanes="1" oneway="1" priority="1" speed="1.39" width="2.00"/>
    <type allow="pedestrian" id="highway.steps" numLanes="1" oneway="1" priority="1" speed="1.39" width="2.00"/>
    <type disallow="tram rail_urban rail rail_electric ship" id="highway.tertiary" numLanes="1" oneway="0" priority="6" speed="22.22"/>
    <type disallow="tram rail_urban rail rail_electric ship" id="highway.tertiary_link" numLanes="1" oneway="0" priority="5" speed="22.22"/>
    <type disallow="tram rail_urban rail rail_electric ship" id="highway.track" numLanes="1" oneway="0" priority="1" speed="5.56"/>
    <type disallow="tram rail_urban rail rail_electric bicycle pedestrian ship" id="highway.trunk" numLanes="2" oneway="0" priority="11" speed="27.78"/>
    <type disallow="tram rail_urban rail rail_electric bicycle pedestrian ship" id="highway.trunk_link" numLanes="1" oneway="0" priority="10" speed="22.22"/>
    <type disallow="tram rail_urban rail rail_electric ship" id="highway.unclassified" numLanes="1" oneway="0" priority="5" speed="13.89"/>
    <type disallow="tram rail_urban rail rail_electric ship" id="highway.unsurfaced" numLanes="1" oneway="0" priority="1" speed="8.33"/>
    <type allow="rail_urban" id="railway.light_rail" numLanes="1" oneway="1" priority="15" speed="27.78"/>
    <type allow="rail" id="railway.preserved" numLanes="1" oneway="1" priority="15" speed="27.78"/>
    <type allow="rail rail_electric" id="railway.rail" numLanes="1" oneway="1" priority="15" speed="83.33"/>
    <type allow="rail_urban" id="railway.subway" numLanes="1" oneway="1" priority="15" speed="27.78"/>
    <type allow="tram" id="railway.tram" numLanes="1" oneway="1" priority="15" speed="13.89"/>

    <edge from="-41715" id="-43211#0" priority="1" shape="146.33,58.99 147.55,47.09 130.94,45.27" spreadType="center" to="-41719" type="highway.corridor">
        <lane allow="pedestrian" id="-43211#0_0" index="0" length="26.13" shape="146.33,58.99 147.55,47.09 133.46,45.54" speed="2.78" width="2.00"/>
    </edge>
    <edge from="-41719" id="-43211#1" priority="1" shape="130.94,45.27 118.86,43.95 89.46,39.07" spreadType="center" to="-41723" type="highway.corridor">
        <lane allow="pedestrian" id="-43211#1_0" index="0" length="36.97" shape="128.49,45.00 118.86,43.95 91.95,39.48" speed="2.78" width="2.00"/>
    </edge>
    <edge from="-41723" id="-43211#2" priority="1" shape="89.46,39.07 78.57,36.80 66.00,34.05" spreadType="center" to="-41727" type="highway.corridor">
        <lane allow="pedestrian" id="-43211#2_0" index="0" length="18.98" shape="87.00,38.55 78.57,36.80 68.43,34.58" speed="2.78" width="2.00"/>
    </edge>
    <edge from="-41727" id="-43211#3" priority="1" shape="66.00,34.05 35.90,26.50 24.98,23.06" spreadType="center" to="-41731" type="highway.corridor">
        <lane allow="pedestrian" id="-43211#3_0" index="0" length="37.46" shape="63.54,33.43 35.90,26.50 27.34,23.80" speed="2.78" width="2.00"/>
    </edge>
    <edge from="-41731" id="-43211#4" priority="1" spreadType="center" to="-41733" type="highway.corridor">
        <lane allow="pedestrian" id="-43211#4_0" index="0" length="23.61" shape="22.58,22.32 0.00,15.40" speed="2.78" width="2.00"/>
    </edge>
    <edge from="-41731" id="-43213#0" priority="1" spreadType="center" to="-41735" type="highway.corridor">
        <lane allow="pedestrian" id="-43213#0_0" index="0" length="13.06" shape="25.69,20.65 29.41,8.14" speed="2.78" width="2.00"/>
    </edge>
    <edge from="-41735" id="-43213#1" priority="1" spreadType="center" to="-41737" type="highway.corridor">
        <lane allow="pedestrian" id="-43213#1_0" index="0" length="13.36" shape="27.89,4.78 15.41,0.00" speed="2.78" width="2.00"/>
    </edge>
    <edge from="-41735" id="-43215#0" priority="1" shape="30.15,5.65 46.29,12.14 47.20,9.11 69.82,16.26" spreadType="center" to="-41743" type="highway.corridor">
        <lane allow="pedestrian" id="-43215#0_0" index="0" length="39.27" shape="32.56,6.62 46.29,12.14 47.20,9.11 67.52,15.54" speed="2.78" width="2.00"/>
    </edge>
    <edge from="-41743" id="-43215#1" priority="1" shape="69.82,16.26 79.77,19.57 80.34,17.18 93.06,20.52" spreadType="center" to="-41749" type="highway.corridor">
        <lane allow="pedestrian" id="-43215#1_0" index="0" length="21.04" shape="72.30,17.09 79.77,19.57 80.34,17.18 90.70,19.90" speed="2.78" width="2.00"/>
    </edge>
    <edge from="-41749" id="-43215#2" priority="1" shape="93.06,20.52 117.45,26.75 117.82,23.69 133.60,26.73" spreadType="center" to="-41755" type="highway.corridor">
        <lane allow="pedestrian" id="-43215#2_0" index="0" length="39.31" shape="95.54,21.15 117.45,26.75 117.82,23.69 131.19,26.27" speed="2.78" width="2.00"/>
    </edge>
    <edge from="-41755" id="-43215#3" priority="1" spreadType="center" to="-41703" type="highway.corridor">
        <lane allow="pedestrian" id="-43215#3_0" index="0" length="12.78" shape="136.10,27.21 148.66,29.63" speed="2.78" width="2.00"/>
    </edge>
    <edge from="-41727" id="-43217" priority="1" spreadType="center" to="-41743" type="highway.corridor">
        <lane allow="pedestrian" id="-43217_0" index="0" length="13.04" shape="66.53,31.57 69.27,18.82" speed="2.78" width="2.00"/>
    </edge>
    <edge from="-41723" id="-43219" priority="1" spreadType="center" to="-41749" type="highway.corridor">
        <lane allow="pedestrian" id="-43219_0" index="0" length="13.81" shape="89.94,36.58 92.57,23.03" speed="2.78" width="2.00"/>
    </edge>
    <edge from="-41755" id="-43221" priority="1" spreadType="center" to="-41719" type="highway.corridor">
        <lane allow="pedestrian" id="-43221_0" index="0" length="13.64" shape="133.24,29.26 131.30,42.76" speed="2.78" width="2.00"/>
    </edge>

    <junction id="-41703" incLanes="-43215#3_0" intLanes="" shape="148.85,28.65 148.47,30.62" type="unregulated" x="148.66" y="29.63"/>
    <junction id="-41715" incLanes="" intLanes="" shape="147.33,59.09 145.34,58.89" type="unregulated" x="146.33" y="58.99"/>
    <junction id="-41719" incLanes="-43211#0_0 -43221_0" intLanes="" shape="133.35,46.54 133.57,44.55 132.29,42.90 130.31,42.62 128.60,44.01 128.38,45.99" type="dead_end" x="130.94" y="45.27"/>
    <junction id="-41723" incLanes="-43211#1_0" intLanes="" shape="91.79,40.47 92.11,38.49 90.92,36.78 88.96,36.39 87.20,37.57 86.79,39.53" type="dead_end" x="89.46" y="39.07"/>
    <junction id="-41727" incLanes="-43211#2_0" intLanes="" shape="68.22,35.56 68.65,33.60 67.51,31.78 65.55,31.36 63.78,32.46 63.29,34.40" type="dead_end" x="66.00" y="34.05"/>
    <junction id="-41731" incLanes="-43211#3_0" intLanes="" shape="27.04,24.76 27.65,22.85 26.65,20.94 24.73,20.37 22.87,21.37 22.28,23.28" type="dead_end" x="24.98" y="23.06"/>
    <junction id="-41733" incLanes="-43211#4_0" intLanes="" shape="-0.29,16.36 0.29,14.44" type="unregulated" x="0.00" y="15.40"/>
    <junction id="-41735" incLanes="-43213#0_0" intLanes="" shape="32.19,7.54 32.93,5.69 28.24,3.85 27.53,5.71 28.45,7.85 30.37,8.42" type="dead_end" x="30.15" y="5.65"/>
    <junction id="-41737" incLanes="-43213#1_0" intLanes="" shape="15.05,0.93 15.76,-0.93" type="unregulated" x="15.41" y="0.00"/>
    <junction id="-41743" incLanes="-43215#0_0 -43217_0" intLanes="" shape="71.98,18.04 72.61,16.14 67.82,14.58 67.22,16.49 68.29,18.61 70.25,19.03" type="dead_end" x="69.82" y="16.26"/>
    <junction id="-41749" incLanes="-43215#1_0 -43219_0" intLanes="" shape="95.29,22.12 95.79,20.18 90.95,18.93 90.45,20.87 91.59,22.84 93.55,23.22" type="dead_end" x="93.06" y="20.52"/>
    <junction id="-41755" incLanes="-43215#2_0" intLanes="" shape="135.91,28.20 136.29,26.23 131.38,25.29 131.00,27.25 132.25,29.11 134.23,29.40" type="dead_end" x="133.60" y="26.73"/>

<edge from="-41733" id="EP:-41733" priority="1" to="EPJ:-41733"><lane allow="pedestrian" id="EP:-41733_0" index="0" length="0.1" shape="-0.29,16.36 0.29,14.44" speed="2.78" width="2.0"/></edge><junction id="EPJ:-41733" incLanes="-43211#4_0" intLanes="" shape="-0.29,16.36 0.29,14.44" type="unregulated" x="0.00" y="15.40"/></net>