<?xml version="1.0" encoding="UTF-8"?>

<!-- generated on Thu Nov 23 14:10:24 2017 by SUMO netconvert Version 0.29.0
<?xml version="1.0" encoding="UTF-8"?>

<configuration xmlns:xsi="http://www.w3.org/2001/XMLSchema-instance" xsi:noNamespaceSchemaLocation="http://sumo.dlr.de/xsd/netconvertConfiguration.xsd">

    <input>
        <type-files value="custom-osmNetconvert.typ.xml"/>
        <osm-files value="west3-7F.osm"/>
    </input>

    <output>
        <output-file value="west3-7F.net.xml"/>
    </output>

    <projection>
        <proj.utm value="true"/>
    </projection>

</configuration>
-->

<net version="0.27" xmlns:xsi="http://www.w3.org/2001/XMLSchema-instance" xsi:noNamespaceSchemaLocation="http://sumo.dlr.de/xsd/net_file.xsd">

    <location netOffset="-612882.41,-3717980.05" convBoundary="0.00,0.00,90.62,36.37" origBoundary="130.216590,33.595586,130.217571,33.595905" projParameter="+proj=utm +zone=52 +ellps=WGS84 +datum=WGS84 +units=m +no_defs"/>

    <type id="highway.bridleway" priority="1" numLanes="1" speed="2.78" allow="pedestrian" oneway="1" width="2.00"/>
    <type id="highway.bus_guideway" priority="1" numLanes="1" speed="8.33" allow="bus" oneway="1"/>
    <type id="highway.corridor" priority="1" numLanes="1" speed="2.78" allow="pedestrian" oneway="1" width="2.00"/>
    <type id="highway.cycleway" priority="1" numLanes="1" speed="5.56" allow="bicycle" oneway="0" width="1.00"/>
    <type id="highway.footway" priority="1" numLanes="1" speed="2.78" allow="pedestrian" oneway="1" width="2.00"/>
    <type id="highway.ford" priority="1" numLanes="1" speed="2.78" allow="army" oneway="0"/>
    <type id="highway.living_street" priority="3" numLanes="1" speed="2.78" disallow="tram rail_urban rail rail_electric ship" oneway="0"/>
    <type id="highway.motorway" priority="13" numLanes="2" speed="44.44" allow="private emergency authority army vip passenger hov taxi bus coach delivery truck trailer motorcycle evehicle custom1 custom2" oneway="1"/>
    <type id="highway.motorway_link" priority="12" numLanes="1" speed="22.22" allow="private emergency authority army vip passenger hov taxi bus coach delivery truck trailer motorcycle evehicle custom1 custom2" oneway="1"/>
    <type id="highway.path" priority="1" numLanes="1" speed="2.78" allow="bicycle pedestrian" oneway="1" width="2.00"/>
    <type id="highway.pedestrian" priority="1" numLanes="1" speed="2.78" allow="pedestrian" oneway="1" width="2.00"/>
    <type id="highway.primary" priority="9" numLanes="2" speed="27.78" disallow="tram rail_urban rail rail_electric ship" oneway="0"/>
    <type id="highway.primary_link" priority="8" numLanes="1" speed="22.22" disallow="tram rail_urban rail rail_electric ship" oneway="0"/>
    <type id="highway.raceway" priority="14" numLanes="2" speed="83.33" allow="vip" oneway="0"/>
    <type id="highway.residential" priority="4" numLanes="1" speed="13.89" disallow="tram rail_urban rail rail_electric ship" oneway="0"/>
    <type id="highway.secondary" priority="7" numLanes="2" speed="27.78" disallow="tram rail_urban rail rail_electric ship" oneway="0"/>
    <type id="highway.secondary_link" priority="6" numLanes="1" speed="22.22" disallow="tram rail_urban rail rail_electric ship" oneway="0"/>
    <type id="highway.service" priority="2" numLanes="1" speed="5.56" allow="delivery bicycle pedestrian" oneway="0"/>
    <type id="highway.services" priority="1" numLanes="1" speed="8.33" disallow="tram rail_urban rail rail_electric ship" oneway="0"/>
    <type id="highway.stairs" priority="1" numLanes="1" speed="1.39" allow="pedestrian" oneway="1" width="2.00"/>
    <type id="highway.step" priority="1" numLanes="1" speed="1.39" allow="pedestrian" oneway="1" width="2.00"/>
    <type id="highway.steps" priority="1" numLanes="1" speed="1.39" allow="pedestrian" oneway="1" width="2.00"/>
    <type id="highway.tertiary" priority="6" numLanes="1" speed="22.22" disallow="tram rail_urban rail rail_electric ship" oneway="0"/>
    <type id="highway.tertiary_link" priority="5" numLanes="1" speed="22.22" disallow="tram rail_urban rail rail_electric ship" oneway="0"/>
    <type id="highway.track" priority="1" numLanes="1" speed="5.56" disallow="tram rail_urban rail rail_electric ship" oneway="0"/>
    <type id="highway.trunk" priority="11" numLanes="2" speed="27.78" disallow="tram rail_urban rail rail_electric bicycle pedestrian ship" oneway="0"/>
    <type id="highway.trunk_link" priority="10" numLanes="1" speed="22.22" disallow="tram rail_urban rail rail_electric bicycle pedestrian ship" oneway="0"/>
    <type id="highway.unclassified" priority="5" numLanes="1" speed="13.89" disallow="tram rail_urban rail rail_electric ship" oneway="0"/>
    <type id="highway.unsurfaced" priority="1" numLanes="1" speed="8.33" disallow="tram rail_urban rail rail_electric ship" oneway="0"/>
    <type id="railway.light_rail" priority="15" numLanes="1" speed="27.78" allow="rail_urban" oneway="1"/>
    <type id="railway.preserved" priority="15" numLanes="1" speed="27.78" allow="rail" oneway="1"/>
    <type id="railway.rail" priority="15" numLanes="1" speed="83.33" allow="rail rail_electric" oneway="1"/>
    <type id="railway.subway" priority="15" numLanes="1" speed="27.78" allow="rail_urban" oneway="1"/>
    <type id="railway.tram" priority="15" numLanes="1" speed="13.89" allow="tram" oneway="1"/>

    <edge id="-45793#0" from="-45788" to="-45792" priority="1" type="highway.corridor" spreadType="center">
        <lane id="-45793#0_0" index="0" allow="pedestrian" speed="2.78" length="41.69" width="2.00" shape="0.00,0.00 37.67,17.85"/>
    </edge>
    <edge id="-45793#1" from="-45792" to="-45794" priority="1" type="highway.corridor" spreadType="center">
        <lane id="-45793#1_0" index="0" allow="pedestrian" speed="2.78" length="0.62" width="2.00" shape="38.85,21.19 38.58,21.74"/>
    </edge>
    <edge id="-45826#0" from="-45792" to="-45825" priority="1" type="highway.corridor" spreadType="center">
        <lane id="-45826#0_0" index="0" allow="pedestrian" speed="2.78" length="1.05" width="2.00" shape="41.01,16.67 41.46,15.73"/>
    </edge>
    <edge id="-45826#1" from="-45825" to="-45827" priority="1" type="highway.corridor" spreadType="center">
        <lane id="-45826#1_0" index="0" allow="pedestrian" speed="2.78" length="9.90" width="2.00" shape="43.60,11.21 47.83,2.26"/>
    </edge>
    <edge id="-45834#0" from="-45825" to="-45835" priority="1" type="highway.corridor" spreadType="center" shape="42.54,13.45 50.40,17.35 87.80,32.04">
        <lane id="-45834#0_0" index="0" allow="pedestrian" speed="2.78" length="43.94" width="2.00" shape="44.80,14.57 50.40,17.35 85.48,31.13"/>
    </edge>
    <edge id="-45834#1" from="-45835" to="-45837" priority="1" type="highway.corridor" spreadType="center">
        <lane id="-45834#1_0" index="0" allow="pedestrian" speed="2.78" length="0.53" width="2.00" shape="90.13,33.03 90.62,33.23"/>
    </edge>
    <edge id="-45847" from="-45835" to="-45846" priority="1" type="highway.corridor" spreadType="center">
        <lane id="-45847_0" index="0" allow="pedestrian" speed="2.78" length="2.11" width="2.00" shape="86.89,34.41 86.13,36.37"/>
    </edge>

    <junction id="-45788" type="unregulated" x="0.00" y="0.00" incLanes="" intLanes="" shape="-0.43,0.90 0.43,-0.90"/>
    <junction id="-45792" type="dead_end" x="39.94" y="18.93" incLanes="-45793#0_0" intLanes="" shape="41.92,17.10 40.11,16.24 38.10,16.95 37.24,18.76 37.95,20.75 39.75,21.62"/>
    <junction id="-45794" type="unregulated" x="38.58" y="21.74" incLanes="-45793#1_0" intLanes="" shape="39.48,22.18 37.68,21.31"/>
    <junction id="-45825" type="dead_end" x="42.54" y="13.45" incLanes="-45826#0_0" intLanes="" shape="44.35,15.47 45.24,13.68 44.51,11.64 42.70,10.78 40.56,15.30 42.37,16.16"/>
    <junction id="-45827" type="unregulated" x="47.83" y="2.26" incLanes="-45826#1_0" intLanes="" shape="46.92,1.83 48.73,2.68"/>
    <junction id="-45835" type="dead_end" x="87.80" y="32.04" incLanes="-45834#0_0" intLanes="" shape="89.75,33.95 90.52,32.10 85.85,30.20 85.11,32.06 85.96,34.05 87.82,34.77"/>
    <junction id="-45837" type="unregulated" x="90.62" y="33.23" incLanes="-45834#1_0" intLanes="" shape="91.01,32.31 90.23,34.15"/>
    <junction id="-45846" type="unregulated" x="86.13" y="36.37" incLanes="-45847_0" intLanes="" shape="87.07,36.73 85.20,36.01"/>

</net>
