<?xml version="1.0" encoding="UTF-8" ?>
<configuration xmlns:xsi="http://www.w3.org/2001/XMLSchema-instance" xsi:noNamespaceSchemaLocation="http://sumo.sf.net/xsd/sumoConfiguration.xsd">
  
	<input>
	  <net-file value="../map/west3-7F.ext.net.xml" />
	  <additional-files value="west3-7F.poly.xml" />
	</input>
	
	<processing>
	  <time-to-teleport value="-1" />
	</processing>
	
</configuration>
