<?xml version="1.0" encoding="UTF-8"?>

<!-- generated on Thu Nov 23 14:11:12 2017 by SUMO polyconvert Version 0.29.0
<?xml version="1.0" encoding="UTF-8"?>

<configuration xmlns:xsi="http://www.w3.org/2001/XMLSchema-instance" xsi:noNamespaceSchemaLocation="http://sumo.dlr.de/xsd/polyconvertConfiguration.xsd">

    <input>
        <net-file value="west4-6F.net.xml"/>
        <osm-files value="west4-6F.osm"/>
        <osm.keep-full-type value="true"/>
        <type-file value="custom-osmPolyconvert.typ.xml"/>
    </input>

    <output>
        <output-file value="west4-6F.poly.xml"/>
    </output>

    <processing>
        <poi-layer-offset value="5"/>
    </processing>

    <report>
        <verbose value="true"/>
    </report>

</configuration>
-->

<additional xmlns:xsi="http://www.w3.org/2001/XMLSchema-instance" xsi:noNamespaceSchemaLocation="http://sumo.dlr.de/xsd/additional_file.xsd">
    <location netOffset="-612812.45,-3717892.04" convBoundary="-6.49,-6.14,143.00,98.26" origBoundary="130.215758,33.594742,130.217375,33.595672" projParameter="+proj=utm +zone=52 +ellps=WGS84 +datum=WGS84 +units=m +no_defs"/>

    <poly id="-51713" type="building.university" color="255,230,230" fill="1" layer="-2.00" shape="66.49,47.01 66.30,46.92 63.56,47.88 62.24,47.16 60.92,49.58 57.68,47.70 56.69,47.12 62.38,37.41 68.31,41.37 69.46,39.64 81.44,46.58 75.90,57.57 71.49,55.36 72.72,53.09 71.43,52.40 70.87,49.38 70.69,49.27 66.49,47.01"/>
    <poly id="-51715" type="building.university" color="255,230,230" fill="1" layer="-2.00" shape="-3.86,17.56 -4.34,17.21 -6.49,20.21 -3.79,22.14 -0.77,24.30 -0.02,24.84 -1.18,26.56 4.80,30.56 10.77,34.55 13.86,36.61 17.81,38.98 22.51,42.13 22.87,42.35 25.24,43.84 28.87,46.11 30.87,47.32 31.93,47.97 49.56,58.20 55.80,61.83 58.73,63.41 61.09,64.67 63.87,66.17 64.08,66.28 65.71,67.09 75.21,71.84 77.56,73.01 78.70,73.58 85.22,76.83 89.38,78.91 89.87,79.16 90.83,79.60 98.32,83.04 103.22,85.12 108.37,87.30 113.56,89.49 118.32,91.50 121.65,92.91 124.60,94.16 124.51,94.38 125.34,94.73 126.58,95.29 127.84,95.79 127.07,97.59 128.62,98.26 132.59,88.95 133.80,86.15 132.25,85.50 133.10,83.50 130.66,82.46 134.76,72.92 139.46,75.27 143.00,68.44 138.21,66.05 140.03,62.38 141.01,60.43 137.22,58.54 134.01,56.94 130.79,55.33 127.57,53.72 124.35,52.12 121.12,50.51 117.88,48.90 114.14,47.02 112.10,51.07 111.20,52.85 105.71,50.19 106.62,48.64 106.87,48.21 107.97,46.33 104.33,44.21 101.21,42.40 98.10,40.60 94.99,38.79 91.87,36.98 88.76,35.17 85.66,33.34 82.13,31.32 79.84,35.24 78.82,36.96 78.68,37.21 73.31,34.09 74.45,32.39 75.93,30.19 72.40,27.86 69.43,25.83 66.43,23.84 57.45,17.84 54.44,15.86 51.01,13.54 48.46,17.29 47.34,18.95 42.25,15.60 43.64,13.79 44.97,12.06 41.60,9.49 38.73,7.30 30.16,0.76 26.91,-1.73 21.13,-6.14 18.37,-2.55 17.44,-1.34 12.35,-5.23 7.70,0.83 12.72,4.67 5.80,14.95 3.68,13.43 2.31,15.46 -1.91,12.45 -2.03,12.37 -4.70,15.76 -4.44,15.97 -3.31,16.79 -3.86,17.56"/>
    <poly id="-52807" type="building.university" color="255,230,230" fill="1" layer="-2.00" shape="49.45,28.92 43.49,24.94 43.55,24.85 38.00,21.14 36.72,22.81 31.00,18.45 30.92,18.57 27.74,23.29 31.78,26.03 31.59,26.31 36.94,29.64 37.03,29.72 34.90,32.92 34.25,33.95 36.45,35.31 37.52,35.99 40.35,37.63 43.34,39.37 49.45,28.92"/>
    <poly id="-52809" type="building.university" color="255,230,230" fill="1" layer="-2.00" shape="94.89,54.40 100.99,57.94 102.05,56.13 114.50,62.34 111.82,68.63 107.15,66.61 106.97,67.03 101.85,64.67 101.34,64.44 99.83,67.82 99.98,67.89 99.39,69.15 89.80,64.49 94.89,54.40"/>
</additional>
