<?xml version="1.0" encoding="UTF-8"?>

<!-- generated on Thu Nov 23 02:00:06 2017 by SUMO polyconvert Version 0.29.0
<?xml version="1.0" encoding="UTF-8"?>

<configuration xmlns:xsi="http://www.w3.org/2001/XMLSchema-instance" xsi:noNamespaceSchemaLocation="http://sumo.dlr.de/xsd/polyconvertConfiguration.xsd">

    <input>
        <net-file value="west2-7F.net.xml"/>
        <osm-files value="west2-7F.osm"/>
        <osm.keep-full-type value="true"/>
        <type-file value="custom-osmPolyconvert.typ.xml"/>
    </input>

    <output>
        <output-file value="west2-7F.poly.xml"/>
    </output>

    <processing>
        <poi-layer-offset value="5"/>
    </processing>

    <report>
        <verbose value="true"/>
    </report>

</configuration>
-->

<additional xmlns:xsi="http://www.w3.org/2001/XMLSchema-instance" xsi:noNamespaceSchemaLocation="http://sumo.dlr.de/xsd/additional_file.xsd">
    <location netOffset="-612979.92,-3718000.53" convBoundary="-3.08,-6.99,155.98,59.66" origBoundary="130.217614,33.595696,130.219328,33.596282" projParameter="+proj=utm +zone=52 +ellps=WGS84 +datum=WGS84 +units=m +no_defs"/>

    <poly id="-41933" type="building.university" color="255,230,230" fill="1" layer="-2.00" shape="45.87,23.04 44.62,27.64 51.90,29.39 54.56,18.27 48.35,16.35 48.00,17.51 43.60,15.85 43.21,16.89 40.75,15.96 34.14,13.46 32.54,18.72 34.37,19.28 36.95,20.07 39.03,20.71 38.90,21.13 45.87,23.04"/>
    <poly id="-42285" type="building.university" color="255,230,230" fill="1" layer="-2.00" shape="70.26,34.11 72.19,34.58 73.86,34.98 78.15,35.84 79.33,36.09 80.74,36.38 81.64,36.57 82.63,36.74 84.64,37.09 87.96,37.67 89.98,26.05 83.32,24.45 82.55,24.26 82.45,24.83 81.65,24.58 81.17,24.99 80.78,26.28 78.87,25.69 69.46,22.79 66.93,33.31 70.26,34.11"/>
    <poly id="-43027" type="building.university" color="255,230,230" fill="1" layer="-2.00" shape="-0.33,16.27 0.79,16.66 -3.08,26.90 -0.26,27.87 0.03,27.03 4.41,28.53 4.12,29.37 6.38,30.15 33.53,38.52 42.56,40.99 70.14,47.62 79.34,49.53 107.29,54.42 116.60,55.74 144.79,58.86 148.54,59.16 148.61,58.27 153.23,58.64 153.16,59.52 154.95,59.66 155.16,55.13 154.80,55.11 154.89,53.14 155.26,53.16 155.47,48.62 153.52,48.47 153.69,46.40 146.92,45.87 148.07,35.39 154.66,36.54 154.28,35.00 155.10,30.29 155.98,28.96 149.24,27.78 150.22,22.16 121.11,17.08 120.07,23.02 114.08,21.97 115.00,18.13 86.27,11.22 85.60,14.03 82.68,13.32 82.37,14.61 79.49,13.92 80.11,11.89 51.87,3.19 50.10,8.96 44.38,7.20 45.77,3.51 18.04,-6.99 15.98,-1.52 11.42,-3.25 9.46,-2.92 7.92,-1.66 7.21,0.21 7.53,2.19 8.79,3.73 13.34,5.45 9.66,17.42 0.43,14.26 -0.00,15.40 -0.33,16.27"/>
    <poly id="-43209" type="building.university" color="255,230,230" fill="1" layer="-2.00" shape="115.53,30.92 118.76,31.70 118.99,30.37 120.30,30.58 121.70,30.82 122.71,30.98 125.99,31.53 125.96,31.66 125.66,34.41 125.50,36.47 125.28,37.87 123.54,37.68 120.73,37.42 118.58,37.13 118.52,37.71 117.47,37.56 115.90,37.34 115.65,37.30 115.39,37.27 115.14,37.23 114.89,37.20 114.63,37.16 114.38,37.12 114.13,37.09 113.87,37.05 113.62,37.01 112.01,36.78 111.38,36.70 111.33,37.04 111.07,38.90 110.83,40.60 110.72,41.35 103.31,40.05 105.11,29.76 111.64,31.33 114.18,31.94 114.49,30.67 115.53,30.92"/>
    <poi id="-41713" type="building.university" color="255,230,230" layer="3.00" x="78.87" y="25.69"/>
</additional>
