<?xml version="1.0" encoding="UTF-8"?>

<!-- generated on Thu Nov 23 14:10:41 2017 by SUMO polyconvert Version 0.29.0
<?xml version="1.0" encoding="UTF-8"?>

<configuration xmlns:xsi="http://www.w3.org/2001/XMLSchema-instance" xsi:noNamespaceSchemaLocation="http://sumo.dlr.de/xsd/polyconvertConfiguration.xsd">

    <input>
        <net-file value="west3-7F.net.xml"/>
        <osm-files value="west3-7F.osm"/>
        <osm.keep-full-type value="true"/>
        <type-file value="custom-osmPolyconvert.typ.xml"/>
    </input>

    <output>
        <output-file value="west3-7F.poly.xml"/>
    </output>

    <processing>
        <poi-layer-offset value="5"/>
    </processing>

    <report>
        <verbose value="true"/>
    </report>

</configuration>
-->

<additional xmlns:xsi="http://www.w3.org/2001/XMLSchema-instance" xsi:noNamespaceSchemaLocation="http://sumo.dlr.de/xsd/additional_file.xsd">
    <location netOffset="-612882.41,-3717980.05" convBoundary="-6.14,-12.61,91.05,44.89" origBoundary="130.216524,33.595472,130.217576,33.595982" projParameter="+proj=utm +zone=52 +ellps=WGS84 +datum=WGS84 +units=m +no_defs"/>

    <poly id="-44195" type="building.university" color="255,230,230" fill="1" layer="-2.00" shape="91.05,32.18 50.76,16.17 44.52,13.45 49.49,3.06 47.82,2.25 46.07,1.44 43.39,7.00 5.21,-11.03 5.30,-11.22 2.35,-12.61 -2.65,-2.15 0.36,-0.77 -0.00,-0.00 -0.49,1.01 -2.30,0.18 -2.64,0.02 -3.49,-0.27 -4.28,-0.44 -4.90,-0.29 -5.37,0.07 -5.69,0.66 -5.98,1.32 -6.14,2.09 -5.98,2.73 -5.62,3.24 -4.66,3.79 -4.49,3.88 0.51,6.24 0.08,7.13 3.31,8.65 6.56,10.19 36.03,24.11 36.21,24.18 38.40,25.13 38.22,25.54 42.93,27.58 43.13,27.13 43.30,27.20 45.79,28.28 45.57,28.86 85.93,44.89 90.62,33.23 91.05,32.18"/>
</additional>
