<?xml version="1.0" encoding="UTF-8"?>

<!-- generated on 2016/09/14 17:46:25 by Netedit Version 0.27.1
<?xml version="1.0" encoding="UTF-8"?>

<configuration xmlns:xsi="http://www.w3.org/2001/XMLSchema-instance" xsi:noNamespaceSchemaLocation="http://sumo.dlr.de/xsd/netedit.exeConfiguration.xsd">

    <input>
        <sumo-net-file value="C:\Users\ando\Downloads\sandbox\sumo-example\ito\data\ito.net.xml"/>
    </input>

    <output>
        <output-file value="C:\Users\ando\Downloads\sandbox\sumo-example\ito\data\ito.net.xml"/>
    </output>

    <processing>
        <no-turnarounds value="true"/>
        <offset.disable-normalization value="true"/>
        <lefthand value="true"/>
        <junctions.corner-detail value="0"/>
    </processing>

</configuration>
-->

<net version="0.27" lefthand="true" xmlns:xsi="http://www.w3.org/2001/XMLSchema-instance" xsi:noNamespaceSchemaLocation="http://sumo.dlr.de/xsd/net_file.xsd">

    <location netOffset="-609901.35,-3716383.93" convBoundary="0.00,0.00,6183.56,4482.39" origBoundary="130.184271,33.581505,130.251251,33.621905" projParameter="+proj=utm +zone=52 +ellps=WGS84 +datum=WGS84 +units=m +no_defs"/>

    <edge id=":1010258173_0" function="internal">
        <lane id=":1010258173_0_0" index="0" disallow="tram rail_urban rail rail_electric ship" speed="20.84" length="18.94" shape="5399.97,2493.76 5389.11,2509.28"/>
    </edge>
    <edge id=":1010258173_1" function="internal">
        <lane id=":1010258173_1_0" index="0" disallow="tram rail_urban rail rail_electric ship" speed="27.78" length="17.18" shape="5402.73,2495.57 5400.47,2499.93 5399.58,2504.07 5400.05,2507.97 5401.88,2511.64"/>
    </edge>
    <edge id=":1010258173_2" function="internal">
        <lane id=":1010258173_2_0" index="0" disallow="tram rail_urban rail rail_electric ship" speed="27.78" length="13.42" shape="5409.20,2510.54 5407.50,2507.53 5406.78,2504.63 5407.03,2501.85 5408.25,2499.18"/>
        <lane id=":1010258173_2_1" index="1" disallow="tram rail_urban rail rail_electric ship" speed="27.78" length="13.42" shape="5405.54,2511.09 5403.77,2507.75 5403.18,2504.35 5403.75,2500.89 5405.49,2497.37"/>
    </edge>
    <edge id=":1010258173_4" function="internal">
        <lane id=":1010258173_4_0" index="0" disallow="tram rail_urban rail rail_electric ship" speed="20.84" length="4.93" shape="5405.54,2511.09 5402.54,2508.19 5401.83,2507.95"/>
    </edge>
    <edge id=":1010258173_7" function="internal">
        <lane id=":1010258173_7_0" index="0" speed="20.84" length="13.27" shape="5401.83,2507.95 5398.80,2506.92 5394.32,2507.28 5389.11,2509.28"/>
    </edge>
    <edge id=":1010258173_5" function="internal">
        <lane id=":1010258173_5_0" index="0" disallow="tram rail_urban rail rail_electric ship" speed="20.84" length="7.84" shape="5392.06,2511.49 5394.73,2510.39 5396.71,2510.13 5398.00,2510.71 5398.59,2512.14"/>
    </edge>
    <edge id=":1010258173_6" function="internal">
        <lane id=":1010258173_6_0" index="0" disallow="tram rail_urban rail rail_electric ship" speed="20.84" length="19.70" shape="5392.06,2511.49 5395.29,2509.48 5398.45,2506.64 5401.76,2502.70 5405.49,2497.37"/>
    </edge>
    <edge id=":1738983099_0" function="internal">
        <lane id=":1738983099_0_0" index="0" disallow="tram rail_urban rail rail_electric ship" speed="5.56" length="18.62" shape="2544.23,1633.76 2543.87,1629.47 2543.80,1624.48 2543.88,1619.48 2543.93,1615.16"/>
    </edge>
    <edge id=":1738983099_1" function="internal">
        <lane id=":1738983099_1_0" index="0" disallow="tram rail_urban rail rail_electric ship" speed="5.56" length="19.29" shape="2544.23,1633.76 2543.07,1629.54 2541.08,1624.71 2538.85,1619.96 2536.96,1615.94"/>
    </edge>
    <edge id=":1738983099_2" function="internal">
        <lane id=":1738983099_2_0" index="0" disallow="tram rail_urban rail rail_electric ship" speed="5.56" length="18.37" shape="2533.94,1617.28 2540.97,1634.25"/>
    </edge>
    <edge id=":1738983099_3" function="internal">
        <lane id=":1738983099_3_0" index="0" disallow="tram rail_urban rail rail_electric ship" speed="5.56" length="26.80" shape="2533.94,1617.28 2538.33,1625.64 2541.46,1628.07 2543.32,1624.58 2543.93,1615.16"/>
    </edge>
    <edge id=":1738983099_4" function="internal">
        <lane id=":1738983099_4_0" index="0" disallow="tram rail_urban rail rail_electric ship" speed="5.56" length="9.84" shape="2540.63,1615.16 2540.41,1618.62 2539.72,1619.91 2538.57,1619.01 2536.96,1615.94"/>
    </edge>
    <edge id=":1738983099_5" function="internal">
        <lane id=":1738983099_5_0" index="0" disallow="tram rail_urban rail rail_electric ship" speed="5.56" length="19.09" shape="2540.63,1615.16 2540.97,1634.25"/>
    </edge>
    <edge id=":1738983119_0" function="internal">
        <lane id=":1738983119_0_0" index="0" disallow="tram rail_urban rail rail_electric ship" speed="5.56" length="9.87" shape="2485.88,1843.67 2479.41,1851.13"/>
    </edge>
    <edge id=":1738983119_1" function="internal">
        <lane id=":1738983119_1_0" index="0" disallow="tram rail_urban rail rail_electric ship" speed="5.56" length="10.71" shape="2485.88,1843.67 2484.63,1845.74 2484.27,1848.09 2484.82,1850.71 2486.26,1853.62"/>
    </edge>
    <edge id=":1738983119_2" function="internal">
        <lane id=":1738983119_2_0" index="0" disallow="tram rail_urban rail rail_electric ship" speed="5.56" length="6.48" shape="2489.06,1851.88 2488.09,1850.00 2487.64,1848.37 2487.73,1846.99 2488.35,1845.85"/>
    </edge>
    <edge id=":1738983119_3" function="internal">
        <lane id=":1738983119_3_0" index="0" disallow="tram rail_urban rail rail_electric ship" speed="5.56" length="12.04" shape="2489.06,1851.88 2486.84,1849.22 2484.49,1848.21 2482.01,1848.85 2479.41,1851.13"/>
    </edge>
    <edge id=":1738983119_4" function="internal">
        <lane id=":1738983119_4_0" index="0" disallow="tram rail_urban rail rail_electric ship" speed="5.56" length="5.42" shape="2481.91,1853.28 2483.09,1852.25 2484.20,1851.97 2485.26,1852.42 2486.26,1853.62"/>
    </edge>
    <edge id=":1738983119_5" function="internal">
        <lane id=":1738983119_5_0" index="0" disallow="tram rail_urban rail rail_electric ship" speed="5.56" length="9.83" shape="2481.91,1853.28 2488.35,1845.85"/>
    </edge>
    <edge id=":1738983165_0" function="internal">
        <lane id=":1738983165_0_0" index="0" disallow="tram rail_urban rail rail_electric ship" speed="5.56" length="5.00" shape="3451.79,1819.30 3451.24,1820.55 3450.42,1821.33 3449.33,1821.63 3447.97,1821.45"/>
    </edge>
    <edge id=":1738983165_1" function="internal">
        <lane id=":1738983165_1_0" index="0" disallow="tram rail_urban rail rail_electric ship" speed="5.56" length="10.32" shape="3451.79,1819.30 3451.42,1822.10 3452.04,1824.35 3453.64,1826.05 3456.23,1827.19"/>
    </edge>
    <edge id=":1738983165_2" function="internal">
        <lane id=":1738983165_2_0" index="0" disallow="tram rail_urban rail rail_electric ship" speed="5.56" length="5.00" shape="3457.12,1824.01 3455.86,1823.46 3455.09,1822.64 3454.79,1821.55 3454.97,1820.19"/>
    </edge>
    <edge id=":1738983165_3" function="internal">
        <lane id=":1738983165_3_0" index="0" disallow="tram rail_urban rail rail_electric ship" speed="5.56" length="9.50" shape="3457.12,1824.01 3447.97,1821.45"/>
    </edge>
    <edge id=":1738983165_4" function="internal">
        <lane id=":1738983165_4_0" index="0" disallow="tram rail_urban rail rail_electric ship" speed="5.56" length="9.50" shape="3447.08,1824.63 3456.23,1827.19"/>
    </edge>
    <edge id=":1738983165_5" function="internal">
        <lane id=":1738983165_5_0" index="0" disallow="tram rail_urban rail rail_electric ship" speed="5.56" length="10.32" shape="3447.08,1824.63 3449.88,1825.00 3452.13,1824.38 3453.83,1822.78 3454.97,1820.19"/>
    </edge>
    <edge id=":1738983175_0" function="internal">
        <lane id=":1738983175_0_0" index="0" disallow="tram rail_urban rail rail_electric ship" speed="5.56" length="6.23" shape="2449.76,1885.67 2448.75,1886.45 2447.44,1886.77 2445.83,1886.62 2443.92,1886.02"/>
    </edge>
    <edge id=":1738983175_1" function="internal">
        <lane id=":1738983175_1_0" index="0" disallow="tram rail_urban rail rail_electric ship" speed="5.56" length="9.59" shape="2449.76,1885.67 2443.90,1893.27"/>
    </edge>
    <edge id=":1738983175_2" function="internal">
        <lane id=":1738983175_2_0" index="0" disallow="tram rail_urban rail rail_electric ship" speed="5.56" length="9.30" shape="2446.59,1895.19 2452.26,1887.82"/>
    </edge>
    <edge id=":1738983175_3" function="internal">
        <lane id=":1738983175_3_0" index="0" disallow="tram rail_urban rail rail_electric ship" speed="5.56" length="11.60" shape="2446.59,1895.19 2448.10,1892.27 2448.16,1889.76 2446.77,1887.68 2443.92,1886.02"/>
    </edge>
    <edge id=":1738983175_4" function="internal">
        <lane id=":1738983175_4_0" index="0" disallow="tram rail_urban rail rail_electric ship" speed="5.56" length="5.31" shape="2442.68,1889.08 2443.99,1889.84 2444.62,1890.79 2444.59,1891.93 2443.90,1893.27"/>
    </edge>
    <edge id=":1738983175_5" function="internal">
        <lane id=":1738983175_5_0" index="0" disallow="tram rail_urban rail rail_electric ship" speed="5.56" length="10.36" shape="2442.68,1889.08 2445.65,1889.96 2448.23,1890.04 2450.44,1889.33 2452.26,1887.82"/>
    </edge>
    <edge id=":1738983198_0" function="internal">
        <lane id=":1738983198_0_0" index="0" disallow="tram rail_urban rail rail_electric ship" speed="5.56" length="5.11" shape="2365.78,2041.30 2365.13,2042.41 2364.22,2043.12 2363.04,2043.44 2361.59,2043.36"/>
    </edge>
    <edge id=":1738983198_1" function="internal">
        <lane id=":1738983198_1_0" index="0" disallow="tram rail_urban rail rail_electric ship" speed="5.56" length="9.10" shape="2365.78,2041.30 2364.81,2043.82 2364.28,2045.60 2363.97,2047.42 2363.68,2050.11"/>
    </edge>
    <edge id=":1738983198_2" function="internal">
        <lane id=":1738983198_2_0" index="0" disallow="tram rail_urban rail rail_electric ship" speed="5.56" length="8.20" shape="2366.96,2050.45 2367.22,2048.03 2367.50,2046.38 2367.98,2044.78 2368.85,2042.52"/>
    </edge>
    <edge id=":1738983198_3" function="internal">
        <lane id=":1738983198_3_0" index="0" disallow="tram rail_urban rail rail_electric ship" speed="5.56" length="9.99" shape="2366.96,2050.45 2366.86,2047.74 2365.93,2045.65 2364.18,2044.19 2361.59,2043.36"/>
    </edge>
    <edge id=":1738983198_4" function="internal">
        <lane id=":1738983198_4_0" index="0" disallow="tram rail_urban rail rail_electric ship" speed="5.56" length="4.92" shape="2361.03,2046.62 2362.31,2047.03 2363.17,2047.74 2363.63,2048.77 2363.68,2050.11"/>
    </edge>
    <edge id=":1738983198_5" function="internal">
        <lane id=":1738983198_5_0" index="0" disallow="tram rail_urban rail rail_electric ship" speed="5.56" length="9.67" shape="2361.03,2046.62 2363.70,2046.73 2365.89,2046.09 2367.60,2044.68 2368.85,2042.52"/>
    </edge>
    <edge id=":1738983200_0" function="internal">
        <lane id=":1738983200_0_0" index="0" disallow="tram rail_urban rail rail_electric ship" speed="5.56" length="5.91" shape="3037.46,1632.17 3035.21,1637.64"/>
    </edge>
    <edge id=":1738983200_1" function="internal">
        <lane id=":1738983200_1_0" index="0" disallow="tram rail_urban rail rail_electric ship" speed="5.56" length="7.67" shape="3037.46,1632.17 3037.30,1633.64 3038.04,1634.95 3039.68,1636.08 3042.20,1637.05"/>
    </edge>
    <edge id=":1738983200_2" function="internal">
        <lane id=":1738983200_2_0" index="0" disallow="tram rail_urban rail rail_electric ship" speed="5.56" length="1.23" shape="3043.14,1633.89 3043.49,1632.71"/>
    </edge>
    <edge id=":1738983200_3" function="internal">
        <lane id=":1738983200_3_0" index="0" disallow="tram rail_urban rail rail_electric ship" speed="5.56" length="9.78" shape="3043.14,1633.89 3040.53,1633.49 3038.33,1633.98 3036.56,1635.37 3035.21,1637.64"/>
    </edge>
    <edge id=":1738983200_4" function="internal">
        <lane id=":1738983200_4_0" index="0" disallow="tram rail_urban rail rail_electric ship" speed="5.56" length="4.87" shape="3038.25,1638.92 3038.92,1637.79 3039.81,1637.10 3040.90,1636.85 3042.20,1637.05"/>
    </edge>
    <edge id=":1738983200_5" function="internal">
        <lane id=":1738983200_5_0" index="0" disallow="tram rail_urban rail rail_electric ship" speed="5.56" length="8.63" shape="3038.25,1638.92 3039.68,1635.92 3041.03,1633.88 3042.30,1632.81 3043.49,1632.71"/>
    </edge>
    <edge id=":1738983203_0" function="internal">
        <lane id=":1738983203_0_0" index="0" disallow="tram rail_urban rail rail_electric ship" speed="5.56" length="5.15" shape="3474.69,1651.37 3473.36,1651.98 3472.13,1652.11 3471.01,1651.79 3470.01,1650.99"/>
    </edge>
    <edge id=":1738983203_1" function="internal">
        <lane id=":1738983203_1_0" index="0" disallow="tram rail_urban rail rail_electric ship" speed="5.56" length="10.08" shape="3474.69,1651.37 3472.56,1653.11 3471.46,1655.12 3471.39,1657.41 3472.34,1659.99"/>
    </edge>
    <edge id=":1738983203_2" function="internal">
        <lane id=":1738983203_2_0" index="0" disallow="tram rail_urban rail rail_electric ship" speed="5.56" length="4.94" shape="3475.25,1658.42 3474.78,1657.16 3474.82,1656.03 3475.36,1655.05 3476.40,1654.20"/>
    </edge>
    <edge id=":1738983203_3" function="internal">
        <lane id=":1738983203_3_0" index="0" disallow="tram rail_urban rail rail_electric ship" speed="5.56" length="9.14" shape="3475.25,1658.42 3473.95,1656.04 3472.97,1654.46 3471.82,1653.00 3470.01,1650.99"/>
    </edge>
    <edge id=":1738983203_4" function="internal">
        <lane id=":1738983203_4_0" index="0" disallow="tram rail_urban rail rail_electric ship" speed="5.56" length="8.31" shape="3467.58,1653.22 3469.23,1655.05 3470.28,1656.38 3471.16,1657.82 3472.34,1659.99"/>
    </edge>
    <edge id=":1738983203_5" function="internal">
        <lane id=":1738983203_5_0" index="0" disallow="tram rail_urban rail rail_electric ship" speed="5.56" length="9.72" shape="3467.58,1653.22 3469.53,1654.80 3471.65,1655.49 3473.94,1655.29 3476.40,1654.20"/>
    </edge>
    <edge id=":1738983216_0" function="internal">
        <lane id=":1738983216_0_0" index="0" disallow="tram rail_urban rail rail_electric ship" speed="5.56" length="5.54" shape="2997.08,1728.31 2996.25,1729.70 2995.27,1730.31 2994.13,1730.13 2992.83,1729.17"/>
    </edge>
    <edge id=":1738983216_1" function="internal">
        <lane id=":1738983216_1_0" index="0" disallow="tram rail_urban rail rail_electric ship" speed="5.56" length="10.87" shape="2997.08,1728.31 2996.04,1731.51 2995.79,1734.28 2996.33,1736.62 2997.66,1738.52"/>
    </edge>
    <edge id=":1738983216_2" function="internal">
        <lane id=":1738983216_2_0" index="0" disallow="tram rail_urban rail rail_electric ship" speed="5.56" length="6.93" shape="2999.97,1736.17 2999.28,1735.08 2999.08,1733.62 2999.36,1731.79 3000.12,1729.59"/>
    </edge>
    <edge id=":1738983216_3" function="internal">
        <lane id=":1738983216_3_0" index="0" disallow="tram rail_urban rail rail_electric ship" speed="5.56" length="9.99" shape="2999.97,1736.17 2992.83,1729.17"/>
    </edge>
    <edge id=":1738983216_4" function="internal">
        <lane id=":1738983216_4_0" index="0" disallow="tram rail_urban rail rail_electric ship" speed="5.56" length="10.00" shape="2990.52,1731.52 2997.66,1738.52"/>
    </edge>
    <edge id=":1738983216_5" function="internal">
        <lane id=":1738983216_5_0" index="0" disallow="tram rail_urban rail rail_electric ship" speed="5.56" length="5.70" shape="2990.52,1731.52 2993.45,1733.69 2995.48,1734.01"/>
    </edge>
    <edge id=":1738983216_6" function="internal">
        <lane id=":1738983216_6_0" index="0" speed="5.56" length="6.81" shape="2995.48,1734.01 2996.03,1734.09 2998.25,1732.73 3000.12,1729.59"/>
    </edge>
    <edge id=":1738983239_0" function="internal">
        <lane id=":1738983239_0_0" index="0" disallow="tram rail_urban rail rail_electric ship" speed="5.56" length="6.69" shape="2582.72,1509.46 2581.53,1510.03 2580.07,1510.15 2578.35,1509.80 2576.36,1509.00"/>
    </edge>
    <edge id=":1738983239_1" function="internal">
        <lane id=":1738983239_1_0" index="0" disallow="tram rail_urban rail rail_electric ship" speed="5.56" length="9.56" shape="2582.72,1509.46 2580.51,1511.21 2579.10,1512.56 2577.85,1514.06 2576.09,1516.28"/>
    </edge>
    <edge id=":1738983239_2" function="internal">
        <lane id=":1738983239_2_0" index="0" disallow="tram rail_urban rail rail_electric ship" speed="5.56" length="8.75" shape="2578.65,1518.35 2580.27,1516.32 2581.41,1514.94 2582.68,1513.70 2584.71,1512.09"/>
    </edge>
    <edge id=":1738983239_3" function="internal">
        <lane id=":1738983239_3_0" index="0" disallow="tram rail_urban rail rail_electric ship" speed="5.56" length="11.66" shape="2578.65,1518.35 2580.30,1515.56 2580.47,1513.06 2579.16,1510.88 2576.36,1509.00"/>
    </edge>
    <edge id=":1738983239_4" function="internal">
        <lane id=":1738983239_4_0" index="0" disallow="tram rail_urban rail rail_electric ship" speed="5.56" length="5.29" shape="2575.05,1512.03 2576.32,1512.88 2576.91,1513.88 2576.84,1515.01 2576.09,1516.28"/>
    </edge>
    <edge id=":1738983239_5" function="internal">
        <lane id=":1738983239_5_0" index="0" disallow="tram rail_urban rail rail_electric ship" speed="5.56" length="10.18" shape="2575.05,1512.03 2577.87,1513.12 2580.42,1513.49 2582.70,1513.15 2584.71,1512.09"/>
    </edge>
    <edge id=":1738983243_0" function="internal">
        <lane id=":1738983243_0_0" index="0" disallow="tram rail_urban rail rail_electric ship" speed="5.56" length="5.21" shape="2394.43,1970.41 2393.61,1971.44 2392.59,1972.00 2391.35,1972.09 2389.91,1971.72"/>
    </edge>
    <edge id=":1738983243_1" function="internal">
        <lane id=":1738983243_1_0" index="0" disallow="tram rail_urban rail rail_electric ship" speed="5.56" length="9.29" shape="2394.43,1970.41 2390.46,1978.82"/>
    </edge>
    <edge id=":1738983243_2" function="internal">
        <lane id=":1738983243_2_0" index="0" disallow="tram rail_urban rail rail_electric ship" speed="5.56" length="8.85" shape="2393.53,1980.03 2397.30,1972.02"/>
    </edge>
    <edge id=":1738983243_3" function="internal">
        <lane id=":1738983243_3_0" index="0" disallow="tram rail_urban rail rail_electric ship" speed="5.56" length="10.35" shape="2393.53,1980.03 2394.19,1977.27 2393.81,1974.97 2392.38,1973.12 2389.91,1971.72"/>
    </edge>
    <edge id=":1738983243_4" function="internal">
        <lane id=":1738983243_4_0" index="0" disallow="tram rail_urban rail rail_electric ship" speed="5.56" length="5.01" shape="2388.71,1974.80 2389.91,1975.47 2390.60,1976.37 2390.78,1977.48 2390.46,1978.82"/>
    </edge>
    <edge id=":1738983243_5" function="internal">
        <lane id=":1738983243_5_0" index="0" disallow="tram rail_urban rail rail_electric ship" speed="5.56" length="10.01" shape="2388.71,1974.80 2391.41,1975.47 2393.75,1975.23 2395.71,1974.08 2397.30,1972.02"/>
    </edge>
    <edge id=":1751796832_0" function="internal">
        <lane id=":1751796832_0_0" index="0" disallow="tram rail_urban rail rail_electric ship" speed="13.89" length="5.22" shape="4884.96,1380.73 4883.71,1381.54 4882.52,1381.79 4881.41,1381.46 4880.37,1380.57"/>
    </edge>
    <edge id=":1751796832_1" function="internal">
        <lane id=":1751796832_1_0" index="0" disallow="tram rail_urban rail rail_electric ship" speed="13.89" length="10.73" shape="4884.96,1380.73 4882.99,1382.96 4882.27,1385.24 4882.80,1387.58 4884.57,1389.96"/>
    </edge>
    <edge id=":1751796832_2" function="internal">
        <lane id=":1751796832_2_0" index="0" disallow="tram rail_urban rail rail_electric ship" speed="13.89" length="5.10" shape="4886.91,1387.63 4886.07,1386.50 4885.82,1385.39 4886.16,1384.31 4887.09,1383.25"/>
    </edge>
    <edge id=":1751796832_3" function="internal">
        <lane id=":1751796832_3_0" index="0" disallow="tram rail_urban rail rail_electric ship" speed="13.89" length="9.62" shape="4886.91,1387.63 4880.37,1380.57"/>
    </edge>
    <edge id=":1751796832_4" function="internal">
        <lane id=":1751796832_4_0" index="0" disallow="tram rail_urban rail rail_electric ship" speed="13.89" length="9.87" shape="4877.87,1382.72 4884.57,1389.96"/>
    </edge>
    <edge id=":1751796832_5" function="internal">
        <lane id=":1751796832_5_0" index="0" disallow="tram rail_urban rail rail_electric ship" speed="13.89" length="5.44" shape="4877.87,1382.72 4880.00,1384.57 4882.25,1385.27 4882.50,1385.23"/>
    </edge>
    <edge id=":1751796832_6" function="internal">
        <lane id=":1751796832_6_0" index="0" speed="13.89" length="5.09" shape="4882.50,1385.23 4884.61,1384.83 4887.09,1383.25"/>
    </edge>
    <edge id=":1751796889_0" function="internal">
        <lane id=":1751796889_0_0" index="0" disallow="tram rail_urban rail rail_electric ship" speed="13.89" length="9.50" shape="4864.83,1280.55 4857.78,1286.92"/>
    </edge>
    <edge id=":1751796889_1" function="internal">
        <lane id=":1751796889_1_0" index="0" disallow="tram rail_urban rail rail_electric ship" speed="13.89" length="5.28" shape="4864.83,1280.55 4863.02,1282.73 4862.34,1284.96 4862.36,1285.07"/>
    </edge>
    <edge id=":1751796889_6" function="internal">
        <lane id=":1751796889_6_0" index="0" speed="13.89" length="5.05" shape="4862.36,1285.07 4862.79,1287.25 4864.37,1289.60"/>
    </edge>
    <edge id=":1751796889_2" function="internal">
        <lane id=":1751796889_2_0" index="0" disallow="tram rail_urban rail rail_electric ship" speed="13.89" length="5.00" shape="4866.82,1287.39 4866.05,1286.25 4865.83,1285.14 4866.16,1284.06 4867.04,1283.00"/>
    </edge>
    <edge id=":1751796889_3" function="internal">
        <lane id=":1751796889_3_0" index="0" disallow="tram rail_urban rail rail_electric ship" speed="13.89" length="10.33" shape="4866.82,1287.39 4864.64,1285.57 4862.41,1284.89 4860.12,1285.34 4857.78,1286.92"/>
    </edge>
    <edge id=":1751796889_4" function="internal">
        <lane id=":1751796889_4_0" index="0" disallow="tram rail_urban rail rail_electric ship" speed="13.89" length="5.00" shape="4859.99,1289.37 4861.12,1288.60 4862.23,1288.39 4863.31,1288.72 4864.37,1289.60"/>
    </edge>
    <edge id=":1751796889_5" function="internal">
        <lane id=":1751796889_5_0" index="0" disallow="tram rail_urban rail rail_electric ship" speed="13.89" length="9.50" shape="4859.99,1289.37 4867.04,1283.00"/>
    </edge>
    <edge id=":1751796900_0" function="internal">
        <lane id=":1751796900_0_0" index="0" disallow="tram rail_urban rail rail_electric ship" speed="13.89" length="9.50" shape="4827.47,1314.28 4820.42,1320.64"/>
    </edge>
    <edge id=":1751796900_1" function="internal">
        <lane id=":1751796900_1_0" index="0" disallow="tram rail_urban rail rail_electric ship" speed="13.89" length="5.22" shape="4827.47,1314.28 4825.69,1316.42 4825.02,1318.65 4825.04,1318.76"/>
    </edge>
    <edge id=":1751796900_6" function="internal">
        <lane id=":1751796900_6_0" index="0" speed="13.89" length="5.11" shape="4825.04,1318.76 4825.46,1320.97 4827.00,1323.37"/>
    </edge>
    <edge id=":1751796900_2" function="internal">
        <lane id=":1751796900_2_0" index="0" disallow="tram rail_urban rail rail_electric ship" speed="13.89" length="5.10" shape="4829.51,1321.23 4828.73,1320.03 4828.50,1318.88 4828.82,1317.78 4829.68,1316.73"/>
    </edge>
    <edge id=":1751796900_3" function="internal">
        <lane id=":1751796900_3_0" index="0" disallow="tram rail_urban rail rail_electric ship" speed="13.89" length="10.45" shape="4829.51,1321.23 4827.35,1319.33 4825.11,1318.60 4822.80,1319.04 4820.42,1320.64"/>
    </edge>
    <edge id=":1751796900_4" function="internal">
        <lane id=":1751796900_4_0" index="0" disallow="tram rail_urban rail rail_electric ship" speed="13.89" length="5.03" shape="4822.63,1323.09 4823.77,1322.32 4824.89,1322.11 4825.96,1322.46 4827.00,1323.37"/>
    </edge>
    <edge id=":1751796900_5" function="internal">
        <lane id=":1751796900_5_0" index="0" disallow="tram rail_urban rail rail_electric ship" speed="13.89" length="9.50" shape="4822.63,1323.09 4829.68,1316.73"/>
    </edge>
    <edge id=":1751796928_0" function="internal">
        <lane id=":1751796928_0_0" index="0" disallow="tram rail_urban rail rail_electric ship" speed="18.06" length="7.99" shape="5008.05,1261.97 5007.43,1263.31 5006.08,1264.14 5003.99,1264.46 5001.17,1264.29"/>
    </edge>
    <edge id=":1751796928_1" function="internal">
        <lane id=":1751796928_1_0" index="0" disallow="tram rail_urban rail rail_electric ship" speed="13.89" length="11.55" shape="5008.05,1261.97 5007.28,1265.05 5006.09,1267.28 5004.39,1269.24 5002.08,1271.53"/>
    </edge>
    <edge id=":1751796928_2" function="internal">
        <lane id=":1751796928_2_0" index="0" disallow="tram rail_urban rail rail_electric ship" speed="18.06" length="10.44" shape="5008.05,1261.97 5008.00,1264.84 5008.90,1267.02 5010.72,1268.50 5013.48,1269.28"/>
    </edge>
    <edge id=":1751796928_3" function="internal">
        <lane id=":1751796928_3_0" index="0" disallow="tram rail_urban rail rail_electric ship" speed="18.06" length="5.03" shape="5013.92,1266.01 5012.59,1265.63 5011.72,1264.92 5011.29,1263.87 5011.31,1262.49"/>
    </edge>
    <edge id=":1751796928_4" function="internal">
        <lane id=":1751796928_4_0" index="0" disallow="tram rail_urban rail rail_electric ship" speed="22.22" length="12.87" shape="5013.92,1266.01 5001.17,1264.29"/>
    </edge>
    <edge id=":1751796928_5" function="internal">
        <lane id=":1751796928_5_0" index="0" disallow="tram rail_urban rail rail_electric ship" speed="18.06" length="5.75" shape="5013.92,1266.01 5011.09,1266.07 5008.31,1266.97"/>
    </edge>
    <edge id=":1751796928_12" function="internal">
        <lane id=":1751796928_12_0" index="0" speed="18.06" length="7.76" shape="5008.31,1266.97 5008.17,1267.01 5005.16,1268.83 5002.08,1271.53"/>
    </edge>
    <edge id=":1751796928_6" function="internal">
        <lane id=":1751796928_6_0" index="0" disallow="tram rail_urban rail rail_electric ship" speed="18.06" length="10.48" shape="5004.42,1273.86 5006.89,1271.66 5009.23,1270.16 5011.43,1269.37 5013.48,1269.28"/>
    </edge>
    <edge id=":1751796928_7" function="internal">
        <lane id=":1751796928_7_0" index="0" disallow="tram rail_urban rail rail_electric ship" speed="13.89" length="13.54" shape="5004.42,1273.86 5006.87,1271.29 5008.89,1268.70 5010.40,1265.85 5011.31,1262.49"/>
    </edge>
    <edge id=":1751796928_8" function="internal">
        <lane id=":1751796928_8_0" index="0" disallow="tram rail_urban rail rail_electric ship" speed="18.06" length="14.81" shape="5004.42,1273.86 5007.22,1270.24 5007.61,1267.44 5005.60,1265.46 5001.17,1264.29"/>
    </edge>
    <edge id=":1751796928_9" function="internal">
        <lane id=":1751796928_9_0" index="0" disallow="tram rail_urban rail rail_electric ship" speed="18.06" length="6.15" shape="5000.73,1267.56 5002.57,1268.04 5003.41,1268.87 5003.24,1270.03 5002.08,1271.53"/>
    </edge>
    <edge id=":1751796928_10" function="internal">
        <lane id=":1751796928_10_0" index="0" disallow="tram rail_urban rail rail_electric ship" speed="22.22" length="12.87" shape="5000.73,1267.56 5013.48,1269.28"/>
    </edge>
    <edge id=":1751796928_11" function="internal">
        <lane id=":1751796928_11_0" index="0" disallow="tram rail_urban rail rail_electric ship" speed="18.06" length="7.65" shape="5000.73,1267.56 5004.98,1267.73 5008.16,1266.94 5008.25,1266.86"/>
    </edge>
    <edge id=":1751796928_13" function="internal">
        <lane id=":1751796928_13_0" index="0" speed="18.06" length="5.51" shape="5008.25,1266.86 5010.27,1265.19 5011.31,1262.49"/>
    </edge>
    <edge id=":1751796988_0" function="internal">
        <lane id=":1751796988_0_0" index="0" disallow="tram rail_urban rail rail_electric ship" speed="13.89" length="5.07" shape="4924.58,1346.77 4923.44,1347.57 4922.33,1347.80 4921.23,1347.47 4920.16,1346.57"/>
    </edge>
    <edge id=":1751796988_1" function="internal">
        <lane id=":1751796988_1_0" index="0" disallow="tram rail_urban rail rail_electric ship" speed="13.89" length="9.60" shape="4924.58,1346.77 4917.42,1353.16"/>
    </edge>
    <edge id=":1751796988_2" function="internal">
        <lane id=":1751796988_2_0" index="0" disallow="tram rail_urban rail rail_electric ship" speed="13.89" length="10.45" shape="4924.58,1346.77 4922.78,1349.01 4922.15,1351.28 4922.69,1353.57 4924.40,1355.88"/>
    </edge>
    <edge id=":1751796988_3" function="internal">
        <lane id=":1751796988_3_0" index="0" disallow="tram rail_urban rail rail_electric ship" speed="13.89" length="5.03" shape="4926.75,1353.56 4925.93,1352.45 4925.67,1351.35 4925.97,1350.26 4926.84,1349.18"/>
    </edge>
    <edge id=":1751796988_4" function="internal">
        <lane id=":1751796988_4_0" index="0" disallow="tram rail_urban rail rail_electric ship" speed="13.89" length="9.61" shape="4926.75,1353.56 4920.16,1346.57"/>
    </edge>
    <edge id=":1751796988_5" function="internal">
        <lane id=":1751796988_5_0" index="0" disallow="tram rail_urban rail rail_electric ship" speed="13.89" length="5.24" shape="4926.75,1353.56 4924.49,1351.84 4922.18,1351.20"/>
    </edge>
    <edge id=":1751796988_12" function="internal">