<?xml version="1.0" encoding="UTF-8"?>

<!-- generated on 09/09/16 14:03:49 by SUMO polyconvert Version 0.27.1
<?xml version="1.0" encoding="UTF-8"?>

<configuration xmlns:xsi="http://www.w3.org/2001/XMLSchema-instance" xsi:noNamespaceSchemaLocation="http://sumo.dlr.de/xsd/polyconvertConfiguration.xsd">

    <input>
        <net-file value="ito.net.xml"/>
        <osm-files value="map.osm"/>
        <type-file value="osmPolyconvert.typ.xml"/>
    </input>

    <output>
        <output-file value="ito.poly.xml"/>
    </output>

    <processing>
        <poi-layer-offset value="5"/>
    </processing>

</configuration>
-->

<additional xmlns:xsi="http://www.w3.org/2001/XMLSchema-instance" xsi:noNamespaceSchemaLocation="http://sumo.dlr.de/xsd/additional_file.xsd">
    <location netOffset="-609901.35,-3716383.93" convBoundary="0.00,-7475.92,10109.12,6477.79" origBoundary="130.184271,33.513006,130.292266,33.639796" projParameter="+proj=utm +zone=52 +ellps=WGS84 +datum=WGS84 +units=m +no_defs"/>

    <poly id="100012599" type="parking" color="184,184,179" fill="1" layer="-1.00" shape="3371.48,1937.34 3442.95,1968.05 3461.90,1924.37 3448.12,1918.76 3390.22,1895.18 3380.51,1917.01 3371.48,1937.34"/>
    <poly id="100017226" type="building" color="255,230,230" fill="1" layer="-1.00" shape="3071.29,1642.70 3076.70,1626.33 3090.17,1602.54 3123.80,1614.90 3157.17,1625.66 3195.78,1632.78 3202.01,1633.33 3205.25,1633.62 3229.61,1635.78 3227.64,1644.27 3233.76,1643.24 3232.76,1675.63 3205.35,1673.26 3170.08,1666.56 3136.67,1659.87 3108.49,1651.39 3071.29,1642.70"/>
    <poly id="100111869" type="forest" color="140,196,107" fill="1" layer="-3.00" shape="3447.41,2098.65 3441.48,2094.29 3435.90,2089.27 3430.65,2083.58 3424.11,2075.24 3425.17,2069.31 3424.31,2058.40 3425.40,2050.49 3425.84,2040.91 3427.26,2033.65 3426.02,2025.71 3422.81,2016.42 3418.51,2015.05 3413.18,2016.63 3410.23,2013.62 3413.93,2009.37 3414.97,2005.42 3414.37,2000.45 3416.73,1996.85 3420.04,1997.55 3422.33,2000.22 3425.03,1997.61 3423.76,1992.63 3426.12,1989.03 3432.67,1996.71 3438.30,1997.76 3438.67,1994.46 3436.39,1990.81 3432.12,1987.45 3424.52,1983.73 3418.25,1980.68 3409.00,1977.60 3401.37,1976.18 3395.08,1975.12 3389.43,1975.05 3384.78,1975.33 3385.50,1971.03 3389.84,1968.78 3395.17,1967.19 3402.82,1966.28 3413.75,1969.06 3425.95,1974.82 3437.50,1980.91 3443.41,1986.92 3450.60,1996.59 3453.69,1987.71 3454.10,1981.10 3452.89,1971.51 3453.31,1963.91 3451.72,1957.61 3458.86,1943.82 3466.21,1939.28 3468.17,1942.28 3468.76,1948.23 3485.76,1943.14 3480.70,1949.69 3481.30,1955.65 3488.28,1954.74 3495.59,1953.84 3499.22,1955.53 3500.94,1949.93 3504.99,1944.69 3512.58,1948.41 3515.21,1950.76 3520.47,1955.12 3523.74,1958.79 3532.47,1950.97 3537.43,1952.68 3547.64,1959.07 3555.18,1967.43 3558.84,1966.47 3563.73,1974.47 3563.99,1981.07 3583.37,1997.82 3593.88,2007.53 3601.54,2005.64 3609.13,2010.03 3614.67,2018.02 3615.94,2023.33 3614.86,2030.58 3614.11,2037.51 3622.31,2045.54 3627.87,2052.88 3608.62,2080.41 3605.10,2080.99 3598.36,2085.06 3595.49,2088.42 3590.18,2096.74 3586.55,2100.71 3582.44,2105.36 3580.91,2109.03 3579.23,2111.30 3577.35,2113.33 3575.28,2115.31 3574.19,2116.66 3573.60,2116.93 3570.61,2119.72 3569.01,2120.83 3565.83,2122.99 3562.47,2124.06 3558.55,2125.88 3556.62,2126.72 3553.88,2127.93 3550.49,2128.40 3547.04,2131.06 3541.17,2131.48 3528.29,2136.19 3525.15,2139.09 3522.26,2140.36 3519.93,2140.41 3515.04,2142.92 3510.82,2143.20 3506.03,2146.55 3501.04,2147.56 3495.29,2147.14 3486.41,2141.08 3479.52,2133.73 3482.25,2127.49 3484.96,2122.88 3489.65,2118.65 3494.07,2111.10 3489.56,2099.15 3485.02,2090.18 3479.41,2087.13 3475.04,2092.04 3470.03,2093.96 3462.38,2094.87 3457.08,2094.47 3451.73,2097.72 3447.41,2098.65"/>
    <poly id="101185918" type="forest" color="140,196,107" fill="1" layer="-3.00" shape="3185.36,2035.80 3181.30,2025.37 3176.13,2022.20 3173.12,2011.78 3165.34,2008.06 3167.56,1997.19 3174.43,1988.96 3165.66,1980.55 3171.00,1970.76 3181.45,1968.81 3187.81,1960.05 3188.43,1951.25 3179.61,1948.03 3185.45,1938.75 3188.17,1928.92 3189.80,1923.75 3185.21,1915.39 3190.00,1906.63 3195.27,1902.53 3203.84,1882.92 3212.08,1891.84 3226.36,1874.87 3254.50,1876.25 3258.59,1882.52 3252.67,1898.54 3257.30,1903.78 3261.03,1896.56 3279.22,1902.49 3291.80,1896.41 3312.63,1899.25 3334.01,1898.98 3347.63,1893.95 3367.60,1880.70 3373.61,1901.01 3382.53,1896.44 3380.51,1917.01 3362.78,1935.14 3361.98,1958.99 3363.44,1967.84 3385.50,1971.03 3384.78,1975.33 3377.15,1999.66 3369.75,2007.36 3355.87,1991.10 3350.03,1999.34 3334.43,1995.52 3327.14,1994.92 3330.86,1988.73 3320.99,1985.50 3319.36,1991.71 3305.73,1997.77 3297.33,2002.35 3297.76,2010.65 3295.57,2018.93 3282.98,2025.54 3272.09,2020.22 3263.23,2020.63 3256.31,2031.97 3242.30,2026.09 3231.30,2030.12 3216.78,2023.72 3205.23,2030.32 3197.39,2031.80 3185.36,2035.80"/>
    <poly id="101290805" type="forest" color="140,196,107" fill="1" layer="-3.00" shape="3665.63,2306.21 3657.89,2287.11 3662.86,2271.33 3653.78,2231.64 3676.08,2228.73 3684.46,2193.98 3700.67,2168.84 3727.98,2146.98 3725.06,2124.78 3746.04,2099.69 3777.90,2096.89 3806.05,2138.40 3822.84,2198.79 3841.88,2203.77 3852.77,2224.49 3838.21,2244.91 3819.07,2247.84 3794.97,2268.15 3804.36,2280.93 3836.12,2286.06 3892.17,2256.63 3901.40,2283.66 3893.17,2305.74 3929.06,2366.35 3884.27,2386.40 3848.88,2417.67 3813.83,2422.00 3774.13,2415.20 3739.39,2392.62 3706.45,2352.63 3665.63,2306.21"/>
    <poly id="164887188" type="tourism" color="207,245,201" fill="1" layer="-2.00" shape="4154.49,1559.54 4131.66,1579.10 4083.31,1528.04 4106.89,1507.91 4154.49,1559.54"/>
    <poly id="164887190" type="landuse" color="194,194,130" fill="1" layer="-3.00" shape="3894.33,1579.61 3889.28,1563.49 3883.58,1558.57 3866.85,1544.14 3849.57,1530.92 3818.38,1514.49 3799.71,1508.63 3802.65,1517.77 3795.16,1524.19 3778.50,1533.11 3775.35,1540.88 3756.42,1556.27 3730.08,1572.88 3721.64,1585.80 3717.20,1592.69 3726.17,1608.85 3745.72,1614.29 3762.21,1620.12 3775.34,1615.94 3791.43,1618.73 3803.13,1624.95 3815.31,1626.39 3830.62,1622.67 3868.75,1604.90 3880.58,1596.59 3889.40,1590.40 3894.33,1579.61"/>
    <poly id="165694547" type="building" color="255,230,230" fill="1" layer="-1.00" shape="3588.06,1812.05 3593.51,1793.28 3651.89,1813.27 3645.81,1833.05 3588.06,1812.05"/>
    <poly id="165694554" type="building" color="255,230,230" fill="1" layer="-1.00" shape="3575.31,1745.67 3581.15,1723.27 3709.87,1769.21 3701.42,1792.55 3621.41,1762.81 3575.31,1745.67"/>
    <poly id="165694557" type="amenity" color="237,199,199" fill="1" layer="-1.00" shape="3554.92,1832.22 3555.27,1837.70 3557.31,1842.79 3560.86,1847.00 3566.03,1850.10 3571.94,1851.26 3577.90,1850.37 3583.20,1847.50 3587.20,1843.02 3589.45,1837.45 3589.65,1831.45 3587.81,1825.74 3584.11,1821.00 3579.51,1817.98 3574.18,1816.54 3568.67,1816.83 3563.53,1818.80 3559.26,1822.28 3556.29,1826.90 3554.92,1832.22"/>
    <poly id="165694557#1" type="building" color="255,230,230" fill="1" layer="-1.00" shape="3554.92,1832.22 3555.27,1837.70 3557.31,1842.79 3560.86,1847.00 3566.03,1850.10 3571.94,1851.26 3577.90,1850.37 3583.20,1847.50 3587.20,1843.02 3589.45,1837.45 3589.65,1831.45 3587.81,1825.74 3584.11,1821.00 3579.51,1817.98 3574.18,1816.54 3568.67,1816.83 3563.53,1818.80 3559.26,1822.28 3556.29,1826.90 3554.92,1832.22"/>
    <poly id="165694559" type="leisure" color="207,245,201" fill="1" layer="-2.00" shape="3439.52,1722.35 3431.76,1770.61 3374.07,1766.23 3388.21,1680.80 3395.30,1668.55 3409.29,1658.84 3423.66,1659.76 3437.93,1668.81 3447.20,1688.68 3439.52,1722.35"/>
    <poly id="165694561" type="water" color="181,209,209" fill="1" layer="-4.00" shape="3654.61,1676.48 3656.02,1684.60 3659.97,1691.83 3666.02,1697.45 3673.57,1700.84 3682.10,1701.63 3690.43,1699.57 3697.61,1694.89 3702.82,1688.10 3705.48,1679.98 3705.30,1671.45 3702.29,1663.46 3696.80,1656.89 3689.43,1652.51 3681.33,1650.82 3673.12,1651.79 3665.63,1655.32 3659.68,1661.03 3655.87,1668.34 3654.61,1676.48"/>
    <poly id="165694566" type="landuse" color="194,194,130" fill="1" layer="-3.00" shape="3568.01,1649.29 3593.29,1645.06 3635.97,1637.02 3639.46,1639.15 3639.89,1646.48 3637.96,1662.16 3646.50,1680.93 3653.97,1686.77 3652.90,1673.33 3655.63,1664.46 3657.29,1657.34 3662.07,1653.38 3648.38,1625.30 3644.73,1622.29 3627.80,1617.03 3610.76,1620.84 3597.19,1626.79 3582.34,1637.08 3568.01,1649.29"/>
    <poly id="165694567" type="landuse" color="194,194,130" fill="1" layer="-3.00" shape="3559.87,1700.49 3634.23,1725.96 3678.25,1737.99 3694.01,1738.54 3707.55,1734.50 3688.81,1704.11 3664.99,1703.65 3650.05,1691.26 3635.87,1675.39 3634.08,1664.04 3632.11,1652.67 3626.06,1646.32 3610.96,1647.54 3595.15,1651.01 3563.02,1656.39 3552.08,1662.37 3547.41,1671.73 3545.16,1683.57 3549.95,1693.74 3559.87,1700.49"/>
    <poly id="165694570" type="landuse" color="194,194,130" fill="1" layer="-3.00" shape="3714.74,1734.59 3697.76,1703.16 3702.37,1698.68 3710.43,1684.30 3709.01,1671.20 3703.54,1659.62 3696.44,1652.03 3688.07,1648.27 3672.13,1647.21 3669.16,1646.13 3652.11,1607.03 3656.71,1602.72 3668.94,1606.53 3680.94,1628.83 3686.77,1624.88 3707.62,1640.31 3729.56,1652.42 3737.48,1664.21 3739.57,1679.93 3738.00,1694.40 3732.02,1710.72 3714.74,1734.59"/>
    <poly id="165694577" type="building" color="255,230,230" fill="1" layer="-1.00" shape="3522.30,1836.30 3525.14,1828.30 3527.74,1821.02 3521.70,1818.76 3514.08,1813.25 3508.82,1808.25 3506.95,1805.18 3503.83,1800.05 3501.69,1792.01 3500.29,1784.10 3501.93,1772.40 3486.25,1766.91 3483.82,1783.28 3485.78,1796.26 3487.81,1802.70 3491.19,1809.65 3496.55,1817.98 3504.26,1825.96 3512.87,1831.61 3522.30,1836.30"/>
    <poly id="165694585" type="amenity" color="237,199,199" fill="1" layer="-1.00" shape="3480.81,1584.20 3474.73,1573.76 3508.43,1553.69 3514.98,1566.34 3480.81,1584.20"/>
    <poly id="165694606" type="leisure" color="207,245,201" fill="1" layer="-2.00" shape="3609.46,1599.34 3577.75,1523.04 3559.05,1530.74 3555.36,1521.85 3536.20,1472.27 3536.27,1465.97 3539.11,1456.52 3543.99,1453.23 3573.78,1459.02 3590.08,1454.40 3630.26,1503.72 3636.06,1506.75 3645.22,1506.98 3658.68,1500.73 3698.85,1531.17 3701.47,1539.35 3700.48,1549.94 3695.04,1559.75 3649.99,1582.06 3641.77,1585.80 3609.46,1599.34"/>
    <poly id="165694606#1" type="sport" color="79,230,125" fill="1" layer="-2.00" shape="3609.46,1599.34 3577.75,1523.04 3559.05,1530.74 3555.36,1521.85 3536.20,1472.27 3536.27,1465.97 3539.11,1456.52 3543.99,1453.23 3573.78,1459.02 3590.08,1454.40 3630.26,1503.72 3636.06,1506.75 3645.22,1506.98 3658.68,1500.73 3698.85,1531.17 3701.47,1539.35 3700.48,1549.94 3695.04,1559.75 3649.99,1582.06 3641.77,1585.80 3609.46,1599.34"/>
    <poly id="165694608" type="amenity" color="237,199,199" fill="1" layer="-1.00" shape="3560.67,1802.82 3584.62,1811.49 3591.17,1791.46 3566.25,1782.16 3560.67,1802.82"/>
    <poly id="165694618" type="amenity" color="237,199,199" fill="1" layer="-1.00" shape="3643.79,1889.41 3657.12,1852.32 3677.60,1860.46 3665.76,1896.83 3661.59,1898.40 3643.79,1889.41"/>
    <poly id="165694620" type="leisure" color="207,245,201" fill="1" layer="-2.00" shape="3537.87,1596.78 3522.41,1562.56 3537.39,1553.61 3535.00,1546.18 3565.90,1532.73 3587.27,1569.74 3537.87,1596.78"/>
    <poly id="165694621" type="amenity" color="237,199,199" fill="1" layer="-1.00" shape="3628.11,1883.52 3607.59,1878.80 3610.83,1866.75 3608.97,1866.24 3618.96,1838.42 3641.53,1846.83 3628.11,1883.52"/>
    <poly id="165694628" type="amenity" color="237,199,199" fill="1" layer="-1.00" shape="3455.63,1634.70 3424.55,1621.51 3417.19,1615.51 3417.74,1610.58 3422.19,1605.79 3439.61,1600.06 3445.16,1604.84 3455.63,1634.70"/>
    <poly id="165694631" type="leisure" color="207,245,201" fill="1" layer="-2.00" shape="3473.60,1645.62 3467.95,1640.86 3442.25,1592.45 3470.95,1576.01 3477.99,1588.68 3510.89,1572.53 3532.73,1612.51 3473.60,1645.62"/>
    <poly id="165694631#1" type="sport" color="79,230,125" fill="1" layer="-2.00" shape="3473.60,1645.62 3467.95,1640.86 3442.25,1592.45 3470.95,1576.01 3477.99,1588.68 3510.89,1572.53 3532.73,1612.51 3473.60,1645.62"/>
    <poly id="165699325" type="building" color="255,230,230" fill="1" layer="-1.00" shape="3666.06,2109.90 3663.83,2146.20 3631.62,2146.04 3633.18,2108.84 3666.06,2109.90"/>
    <poly id="165699325#1" type="tourism" color="207,245,201" fill="1" layer="-2.00" shape="3666.06,2109.90 3663.83,2146.20 3631.62,2146.04 3633.18,2108.84 3666.06,2109.90"/>
    <poly id="165699326" type="building" color="255,230,230" fill="1" layer="-1.00" shape="3671.66,2055.26 3703.85,2057.42 3699.79,2096.17 3668.50,2094.01 3671.66,2055.26"/>
    <poly id="165699326#1" type="tourism" color="207,245,201" fill="1" layer="-2.00" shape="3671.66,2055.26 3703.85,2057.42 3699.79,2096.17 3668.50,2094.01 3671.66,2055.26"/>
    <poly id="165699327" type="tourism" color="207,245,201" fill="1" layer="-2.00" shape="3619.36,1981.98 3611.60,2009.25 3634.07,2014.67 3641.82,1987.86 3619.36,1981.98"/>
    <poly id="165699328" type="parking" color="184,184,179" fill="1" layer="-1.00" shape="3475.83,1825.24 3480.23,1809.26 3474.21,1780.16 3469.20,1779.45 3457.55,1820.24 3466.36,1822.84 3475.83,1825.24"/>
    <poly id="165713639" type="forest" color="140,196,107" fill="1" layer="-3.00" shape="2552.32,1597.21 2557.97,1566.49 2576.74,1527.40 2607.60,1499.80 2646.89,1481.63 2667.72,1475.39 2698.69,1473.32 2743.38,1480.73 2785.03,1504.32 2763.17,1537.77 2776.73,1558.88 2838.75,1609.89 2897.99,1661.64 2936.77,1721.25 2977.31,1770.75 2989.39,1816.68 2991.93,1877.48 3007.32,1953.84 3062.27,1988.93 3088.96,2003.83 3111.68,2009.77 3154.23,2026.47 3053.43,2012.72 3025.98,1994.17 3012.63,1986.73 2990.22,1988.08 2960.31,1936.28 2957.27,1883.15 2945.54,1841.70 2942.28,1806.80 2920.65,1777.38 2878.30,1778.10 2855.01,1750.67 2823.07,1698.03 2780.30,1667.54 2761.79,1617.13 2735.96,1607.08 2688.15,1550.47 2673.09,1555.50 2668.02,1554.40 2626.96,1584.72 2552.32,1597.21"/>
    <poly id="166553605" type="amenity" color="237,199,199" fill="1" layer="-1.00" shape="3345.11,1760.69 3361.68,1764.24 3365.54,1749.59 3348.65,1747.24 3345.11,1760.69"/>
    <poly id="166553606" type="building" color="255,230,230" fill="1" layer="-1.00" shape="3283.26,1741.23 3296.30,1743.40 3296.26,1746.53 3283.19,1744.23 3283.26,1741.23"/>
    <poly id="166553607" type="building" color="255,230,230" fill="1" layer="-1.00" shape="3294.37,1757.64 3296.26,1746.53 3296.30,1743.40 3341.83,1751.77 3338.90,1765.21 3294.37,1757.64"/>
    <poly id="166553608" type="building" color="255,230,230" fill="1" layer="-1.00" shape="3267.48,1767.73 3281.33,1767.59 3283.19,1744.23 3283.26,1741.23 3269.02,1740.48 3267.48,1767.73"/>
    <poly id="166553610" type="parking" color="184,184,179" fill="1" layer="-1.00" shape="3238.02,1785.97 3249.76,1786.69 3254.71,1714.73 3262.17,1714.96 3265.11,1681.25 3243.75,1676.29 3238.02,1785.97"/>
    <poly id="166554727" type="parking" color="184,184,179" fill="1" layer="-1.00" shape="3088.25,1530.71 3101.91,1539.08 3132.22,1533.24 3150.57,1489.27 3139.29,1483.01 3160.67,1428.74 3121.24,1419.57 3105.84,1462.29 3096.10,1462.83 3078.59,1519.39 3088.25,1530.71"/>
    <poly id="166554942" type="amenity" color="237,199,199" fill="1" layer="-1.00" shape="2965.42,1724.45 2954.95,1734.69 2966.36,1746.24 2976.81,1735.99 2965.42,1724.45"/>
    <poly id="166554942#1" type="building" color="255,230,230" fill="1" layer="-1.00" shape="2965.42,1724.45 2954.95,1734.69 2966.36,1746.24 2976.81,1735.99 2965.42,1724.45"/>
    <poly id="166554943" type="amenity" color="237,199,199" fill="1" layer="-1.00" shape="3269.12,1647.01 3273.41,1600.23 3282.86,1601.08 3285.55,1584.35 3286.14,1576.60 3334.15,1578.90 3328.59,1649.94 3269.12,1647.01"/>
    <poly id="166554943#1" type="building" color="255,230,230" fill="1" layer="-1.00" shape="3269.12,1647.01 3273.41,1600.23 3282.86,1601.08 3285.55,1584.35 3286.14,1576.60 3334.15,1578.90 3328.59,1649.94 3269.12,1647.01"/>
    <poly id="166554944" type="building" color="255,230,230" fill="1" layer="-1.00" shape="3035.60,1828.99 3047.35,1798.20 3027.28,1790.59 3015.51,1821.38 3035.60,1828.99"/>
    <poly id="166554945" type="building" color="255,230,230" fill="1" layer="-1.00" shape="3060.98,1838.78 3068.31,1818.74 3047.05,1811.04 3039.72,1831.07 3060.98,1838.78"/>
    <poly id="166554946" type="building" color="255,230,230" fill="1" layer="-1.00" shape="3186.87,1855.91 3171.14,1848.94 3146.39,1914.30 3161.86,1919.64 3186.87,1855.91"/>
    <poly id="166554947" type="building" color="255,230,230" fill="1" layer="-1.00" shape="3068.53,1661.61 3155.87,1686.16 3152.99,1697.78 3065.64,1674.70 3068.53,1661.61"/>
    <poly id="166554948" type="building" color="255,230,230" fill="1" layer="-1.00" shape="3053.04,1700.90 3099.51,1715.73 3094.12,1730.28 3122.89,1738.55 3135.26,1702.28 3060.36,1678.72 3053.04,1700.90"/>
    <poly id="166554949" type="building" color="255,230,230" fill="1" layer="-1.00" shape="3132.54,1743.87 3167.80,1750.72 3177.00,1710.20 3143.70,1704.11 3132.54,1743.87"/>
    <poly id="166554950" type="building" color="255,230,230" fill="1" layer="-1.00" shape="3184.70,1732.09 3188.18,1711.82 3220.48,1715.67 3217.51,1735.70 3184.70,1732.09"/>
    <poly id="166554951" type="building" color="255,230,230" fill="1" layer="-1.00" shape="3181.17,1756.58 3183.87,1739.03 3216.18,1743.12 3212.99,1760.17 3181.17,1756.58"/>
    <poly id="166554952" type="building" color="255,230,230" fill="1" layer="-1.00" shape="3094.89,1873.86 3065.59,1864.09 3082.19,1814.75 3111.49,1824.52 3094.89,1873.86"/>
    <poly id="166554953" type="building" color="255,230,230" fill="1" layer="-1.00" shape="3117.92,1780.11 3128.66,1755.96 3091.50,1740.66 3078.76,1766.03 3117.92,1780.11"/>
    <poly id="166554954" type="building" color="255,230,230" fill="1" layer="-1.00" shape="3133.50,1767.91 3138.10,1757.32 3146.78,1760.88 3142.67,1771.49 3133.50,1767.91"/>
    <poly id="166554955" type="building" color="255,230,230" fill="1" layer="-1.00" shape="3126.33,1784.43 3131.95,1772.35 3140.38,1775.68 3135.01,1787.50 3126.33,1784.43"/>
    <poly id="166554956" type="building" color="255,230,230" fill="1" layer="-1.00" shape="3142.47,1788.09 3144.71,1779.93 3149.19,1781.48 3147.18,1789.63 3142.47,1788.09"/>
    <poly id="166554957" type="building" color="255,230,230" fill="1" layer="-1.00" shape="3157.87,1791.48 3162.66,1764.29 3209.61,1773.26 3205.83,1797.75 3157.87,1791.48"/>
    <poly id="166554958" type="building" color="255,230,230" fill="1" layer="-1.00" shape="3065.90,1759.18 3039.21,1742.27 3051.88,1723.34 3078.33,1739.51 3065.90,1759.18"/>
    <poly id="166554959" type="building" color="255,230,230" fill="1" layer="-1.00" shape="3050.88,1878.32 3062.09,1845.02 3038.67,1837.20 3027.46,1870.50 3050.88,1878.32"/>
    <poly id="166554960" type="building" color="255,230,230" fill="1" layer="-1.00" shape="3163.99,1846.31 3134.56,1834.64 3104.00,1911.07 3133.43,1922.73 3163.99,1846.31"/>
    <poly id="166554965" type="amenity" color="237,199,199" fill="1" layer="-1.00" shape="2930.46,1674.03 2941.38,1682.72 2943.05,1688.07 2945.52,1695.09 2948.30,1699.86 2952.34,1704.08 2955.55,1708.66 2964.94,1722.15 2955.25,1731.95 2947.61,1723.73 2941.14,1713.81 2936.30,1702.10 2929.73,1690.15 2925.01,1678.19 2930.46,1674.03"/>
    <poly id="166554966" type="aeroway" color="grey" fill="1" layer="-2.00" shape="2993.81,1754.03 2996.82,1753.68 2999.79,1754.30 3002.41,1755.83 3004.38,1758.12 3005.57,1761.04 3005.70,1764.18 3004.78,1767.18 3002.91,1769.71 3000.30,1771.48 2997.26,1772.30 2994.11,1772.05 2991.22,1770.78 2988.99,1768.73 2987.55,1766.07 2987.03,1763.09 2987.49,1760.10 2988.88,1757.43 2991.06,1755.32 2993.81,1754.03"/>
    <poly id="166554967" type="parking" color="184,184,179" fill="1" layer="-1.00" shape="2837.01,1570.17 2862.42,1593.05 2889.80,1624.44 2910.73,1647.71 2919.40,1664.31 2907.74,1672.99 2894.05,1656.72 2889.88,1651.30 2881.15,1638.92 2862.09,1621.43 2845.65,1610.12 2830.38,1596.51 2817.94,1589.14 2829.28,1576.19 2837.01,1570.17"/>
    <poly id="166554969" type="amenity" color="237,199,199" fill="1" layer="-1.00" shape="2874.47,1467.95 2858.33,1490.50 2818.02,1463.60 2832.91,1442.98 2874.47,1467.95"/>
    <poly id="166554970" type="amenity" color="237,199,199" fill="1" layer="-1.00" shape="3097.89,1878.55 3093.92,1888.94 3105.33,1893.25 3109.30,1882.86 3097.89,1878.55"/>
    <poly id="166554971" type="parking" color="184,184,179" fill="1" layer="-1.00" shape="3099.64,1873.82 3112.93,1878.84 3130.66,1832.38 3117.37,1827.35 3099.64,1873.82"/>
    <poly id="166554972" type="parking" color="184,184,179" fill="1" layer="-1.00" shape="2835.73,1520.98 2797.83,1493.02 2816.07,1465.53 2855.93,1492.44 2835.73,1520.98"/>
    <poly id="166554973" type="parking" color="184,184,179" fill="1" layer="-1.00" shape="3141.87,1556.98 3129.15,1550.06 3131.59,1538.42 3136.67,1536.04 3147.69,1537.25 3142.51,1548.42 3141.68,1550.21 3141.87,1556.98"/>
    <poly id="166555230" type="parking" color="184,184,179" fill="1" layer="-1.00" shape="3148.15,1919.40 3121.00,1953.88 3040.04,1929.89 3025.48,1900.04 3030.37,1878.09 3048.82,1882.91 3058.82,1863.07 3085.96,1873.11 3107.57,1828.84 3128.06,1834.72 3109.65,1913.31 3148.15,1919.40"/>
    <poly id="166555231" type="amenity" color="237,199,199" fill="1" layer="-1.00" shape="3351.64,1836.64 3406.03,1845.99 3476.04,1882.63 3512.46,1911.47 3504.85,1924.68 3489.99,1920.67 3480.41,1926.44 3460.46,1917.25 3454.31,1915.13 3458.54,1906.22 3458.15,1894.96 3436.15,1886.51 3383.46,1863.37 3363.58,1848.29 3347.15,1846.31 3343.33,1842.94 3342.16,1833.71 3351.64,1836.64"/>
    <poly id="166555232" type="amenity" color="237,199,199" fill="1" layer="-1.00" shape="3289.73,1685.57 3314.13,1689.56 3307.77,1716.44 3285.74,1714.25 3289.73,1685.57"/>
    <poly id="166555233" type="parking" color="184,184,179" fill="1" layer="-1.00" shape="3619.40,1919.58 3653.68,1933.80 3657.43,1942.30 3651.55,1961.92 3614.46,1945.63 3619.40,1919.58"/>
    <poly id="166555234" type="parking" color="184,184,179" fill="1" layer="-1.00" shape="3389.41,1876.43 3447.50,1899.89 3448.73,1903.75 3443.99,1913.67 3393.86,1892.10 3387.27,1883.06 3389.41,1876.43"/>
    <poly id="166555235" type="parking" color="184,184,179" fill="1" layer="-1.00" shape="3572.75,1889.55 3613.18,1905.90 3610.16,1921.73 3600.12,1922.88 3597.40,1913.90 3571.66,1895.17 3572.75,1889.55"/>
    <poly id="166555236" type="parking" color="184,184,179" fill="1" layer="-1.00" shape="3238.25,1793.72 3335.20,1791.28 3453.58,1803.16 3449.30,1817.95 3362.27,1807.20 3296.67,1809.50 3238.77,1814.96 3238.25,1793.72"/>
    <poly id="166555792" type="industrial" color="209,209,204" fill="1" layer="-3.00" shape="2567.61,1750.47 2592.60,1763.15 2619.42,1803.69 2597.06,1826.60 2591.56,1828.76 2580.08,1820.56 2544.23,1789.56 2567.61,1750.47"/>
    <poly id="166555793" type="building" color="255,230,230" fill="1" layer="-1.00" shape="2251.89,2008.59 2255.48,1997.77 2271.99,1952.75 2311.31,1962.78 2293.43,2021.70 2251.89,2008.59"/>
    <poly id="166555802" type="amenity" color="237,199,199" fill="1" layer="-1.00" shape="2383.96,2059.49 2376.36,2086.23 2405.00,2103.67 2426.13,2065.92 2390.15,2040.42 2386.04,2047.83 2383.96,2059.49"/>
    <poly id="166556131" type="amenity" color="237,199,199" fill="1" layer="-1.00" shape="2914.53,1454.23 2921.79,1450.84 2928.31,1447.46 2934.06,1444.80 2938.32,1442.99 2942.56,1442.29 2948.03,1442.61 2952.62,1443.90 2957.95,1445.70 2961.40,1447.97 2963.28,1450.34 2965.32,1453.84 2965.65,1455.92 2967.00,1458.81 2967.63,1463.55 2968.27,1469.09 2968.57,1473.42 2969.38,1478.09 2969.66,1483.63 2962.27,1492.18 2932.96,1470.42 2914.53,1454.23"/>
    <poly id="166556131#1" type="building" color="255,230,230" fill="1" layer="-1.00" shape="2914.53,1454.23 2921.79,1450.84 2928.31,1447.46 2934.06,1444.80 2938.32,1442.99 2942.56,1442.29 2948.03,1442.61 2952.62,1443.90 2957.95,1445.70 2961.40,1447.97 2963.28,1450.34 2965.32,1453.84 2965.65,1455.92 2967.00,1458.81 2967.63,1463.55 2968.27,1469.09 2968.57,1473.42 2969.38,1478.09 2969.66,1483.63 2962.27,1492.18 2932.96,1470.42 2914.53,1454.23"/>
    <poly id="166556132" type="amenity" color="237,199,199" fill="1" layer="-1.00" shape="2831.70,1565.45 2815.08,1587.26 2777.60,1557.84 2800.63,1532.29 2812.43,1541.54 2811.51,1546.80 2831.70,1565.45"/>
    <poly id="166556132#1" type="building" color="255,230,230" fill="1" layer="-1.00" shape="2831.70,1565.45 2815.08,1587.26 2777.60,1557.84 2800.63,1532.29 2812.43,1541.54 2811.51,1546.80 2831.70,1565.45"/>
    <poly id="166556363" type="amenity" color="237,199,199" fill="1" layer="-1.00" shape="3555.08,1740.89 3561.96,1716.58 3516.30,1699.44 3508.86,1725.99 3549.88,1739.22 3555.08,1740.89"/>
    <poly id="166556363#1" type="building" color="255,230,230" fill="1" layer="-1.00" shape="3555.08,1740.89 3561.96,1716.58 3516.30,1699.44 3508.86,1725.99 3549.88,1739.22 3555.08,1740.89"/>
    <poly id="166558341" type="leisure" color="207,245,201" fill="1" layer="-2.00" shape="2359.33,2054.87 2351.41,2051.57 2248.51,2020.59 2219.04,2016.23 2194.52,2012.61 2154.52,2037.04 2133.24,2081.65 2127.93,2249.95 2224.67,2255.38 2263.76,2262.46 2293.68,2265.81 2345.08,2256.69 2344.77,2221.15 2342.86,2176.89 2344.53,2132.83 2347.12,2110.81 2350.25,2092.30 2359.33,2054.87"/>
    <poly id="166559478" type="building" color="255,230,230" fill="1" layer="-1.00" shape="3311.27,1837.58 3314.78,1866.48 3277.24,1871.02 3272.82,1841.53 3311.27,1837.58"/>
    <poly id="166559841" type="building" color="255,230,230" fill="1" layer="-1.00" shape="3208.21,1873.88 3208.47,1851.87 3258.81,1852.47 3258.58,1872.46 3208.21,1873.88"/>
    <poly id="166560012" type="parking" color="184,184,179" fill="1" layer="-1.00" shape="2451.14,1789.46 2441.28,1783.85 2429.46,1775.34 2431.39,1770.32 2451.95,1715.28 2471.30,1723.61 2487.18,1730.42 2511.75,1692.17 2519.59,1694.87 2521.06,1726.85 2515.34,1748.09 2482.13,1735.81 2451.14,1789.46"/>
    <poly id="166560013" type="parking" color="184,184,179" fill="1" layer="-1.00" shape="2484.62,1869.12 2510.68,1858.11 2522.47,1884.64 2532.57,1907.66 2532.41,1906.95 2551.33,1947.07 2537.13,1964.60 2484.62,1869.12"/>
    <poly id="167423390" type="building" color="255,230,230" fill="1" layer="-1.00" shape="3071.29,1642.70 3059.84,1638.87 3032.10,1630.23 3013.27,1621.70 2969.76,1598.97 2979.25,1580.36 3039.62,1606.48 3035.62,1615.31 3060.58,1623.92 3076.70,1626.33 3071.29,1642.70"/>
    <poly id="167423391" type="building" color="255,230,230" fill="1" layer="-1.00" shape="2911.88,1530.16 2932.82,1501.58 2948.82,1514.51 2964.28,1525.23 2976.41,1531.99 2982.55,1535.43 3001.90,1547.29 3021.84,1555.84 3039.01,1563.80 3055.10,1568.98 3047.10,1586.07 3040.17,1604.44 2994.73,1584.51 2979.66,1576.89 2949.94,1559.10 2929.04,1545.72 2910.48,1532.37 2911.88,1530.16"/>
    <poly id="167423392" type="building" color="255,230,230" fill="1" layer="-1.00" shape="3061.93,1549.43 3022.05,1532.61 3026.93,1519.54 3044.52,1526.93 3044.19,1529.18 3047.22,1530.43 3053.88,1513.91 3071.71,1521.30 3061.93,1549.43"/>
    <poly id="167423918" type="building" color="255,230,230" fill="1" layer="-1.00" shape="3094.33,1588.46 3104.68,1554.64 3122.05,1559.56 3120.76,1563.26 3172.75,1581.72 3160.00,1612.52 3094.33,1588.46"/>
    <poly id="167428484" type="building" color="255,230,230" fill="1" layer="-1.00" shape="2894.91,1559.24 2960.13,1600.47 2973.74,1580.11 2909.06,1539.73 2894.91,1559.24"/>
    <poly id="167428490" type="building" color="255,230,230" fill="1" layer="-1.00" shape="3011.55,1655.39 3022.35,1636.39 2960.38,1603.52 2928.30,1584.57 2885.49,1555.25 2878.69,1565.42 2882.56,1567.96 2881.71,1569.06 2886.06,1571.89 2885.07,1573.18 2891.42,1577.56 2890.22,1579.28 2897.19,1583.86 2896.00,1585.23 2914.23,1597.37 2912.16,1600.52 2961.11,1628.95 3011.55,1655.39"/>