<flows>
  <interval begin="0" end="3600">
    <flow id="0" from="67209971#0" to="84515126" number="100" />
  </interval>
</flows>
