<flows>
  <flow id="1" from="84515125#3" to="161947715#0" number="1" />
</flows>
