<?xml version="1.0" encoding="UTF-8"?>

<!-- generated on Mon Oct  3 17:48:46 2016 by SUMO duarouter Version 0.27.1
<?xml version="1.0" encoding="UTF-8"?>

<configuration xmlns:xsi="http://www.w3.org/2001/XMLSchema-instance" xsi:noNamespaceSchemaLocation="http://sumo.dlr.de/xsd/duarouterConfiguration.xsd">

    <input>
        <net-file value="ito.net.xml"/>
        <flow-files value="test_reroute_flow.xml"/>
    </input>

    <output>
        <output-file value="test_reroute_flow.rou.xml"/>
    </output>

</configuration>
-->

<routes xmlns:xsi="http://www.w3.org/2001/XMLSchema-instance" xsi:noNamespaceSchemaLocation="http://sumo.dlr.de/xsd/routes_file.xsd">
    <vehicle id="1.0" depart="0.00">
        <route edges="84515125#3 84515125#4 84515125#5 84515125#6 84515125#7 84515125#8 84515125#9 84515125#10 -161947715#2 161947715#0"/>
    </vehicle>
</routes>
