<?xml version="1.0" encoding="UTF-8"?>

<!-- generated on Mon Feb 25 13:49:59 2019 by Eclipse SUMO polyconvert Version 1.1.0
<configuration xmlns:xsi="http://www.w3.org/2001/XMLSchema-instance" xsi:noNamespaceSchemaLocation="http://sumo.dlr.de/xsd/polyconvertConfiguration.xsd">

    <input>
        <net-file value="hakata-tenjin.net.xml"/>
        <osm-files value="hakata-tenjin.osm"/>
        <osm.keep-full-type value="true"/>
    </input>

    <output>
        <output-file value="hakata-tenjin.poly.xml"/>
    </output>

    <processing>
        <poi-layer-offset value="5"/>
    </processing>

</configuration>
-->

<additional xmlns:xsi="http://www.w3.org/2001/XMLSchema-instance" xsi:noNamespaceSchemaLocation="http://sumo.dlr.de/xsd/additional_file.xsd">
    <location netOffset="-622554.76,-3712549.67" convBoundary="0.00,-227.73,13859.76,11002.46" origBoundary="130.234699,33.541818,130.469278,33.682267" projParameter="+proj=utm +zone=52 +ellps=WGS84 +datum=WGS84 +units=m +no_defs"/>

    <poly id="108194459" type="amenity.school" color="237,199,199" fill="1" layer="-1.00" shape="8994.056685,5987.244379 9089.925064,5930.576800 9134.250415,6020.629237 9172.610401,6000.837475 9187.492010,6022.845498 9199.101083,6047.292928 9206.254784,6070.426026 9223.576801,6132.360121 9050.257670,6155.502850 9000.306416,6167.206587 8993.440205,6141.349335 8965.325361,6158.553806 8941.540137,6132.708917 8920.428093,6129.203648 8929.779112,6100.341134 8933.705118,6086.764677 8953.598443,6087.780105 8951.531786,6075.363737 9016.594519,6014.059349 8994.056685,5987.244379"/>
    <poly id="108194460" type="amenity.school" color="237,199,199" fill="1" layer="-1.00" shape="9224.229107,6230.242736 9204.174439,6149.683458 9060.224425,6172.485884 9009.093373,6180.214100 9022.715235,6185.114167 9087.759185,6270.736865 9110.775818,6261.880546 9189.224733,6240.908450 9224.229107,6230.242736"/>
    <poly id="108402175" type="shop.mall" color="237,199,255" fill="1" layer="-1.00" shape="9307.637402,6529.433873 9246.562437,6508.543793 9226.769508,6499.599383 9242.106817,6470.076217 9205.517613,6452.239672 9190.740160,6476.813118 9030.642403,6388.888571 9032.932068,6385.692610 9093.623019,6352.088397 9082.690902,6333.106882 9097.258650,6323.147678 9089.902248,6309.383345 9099.521883,6303.603978 9105.357321,6301.044437 9097.405685,6286.018713 9115.556231,6278.060575 9246.470997,6242.692047 9261.001840,6247.616028 9280.486049,6320.326649 9317.236880,6449.425662 9317.969133,6471.117665 9324.685337,6513.220749 9307.637402,6529.433873"/>
    <poly id="109979096" type="building.yes" color="255,230,230" fill="1" layer="-1.00" shape="8910.694302,6752.089691 8952.574181,6726.434137 8934.470404,6697.162395 8892.340241,6722.792423 8890.105262,6719.290505 8883.337932,6723.512073 8885.610177,6727.003409 8864.074679,6740.294501 8882.178727,6769.555020 8904.021590,6756.179454 8941.500142,6816.769837 8948.172679,6812.691189 8910.694302,6752.089691"/>
    <poly id="109979160" type="building.yes" color="255,230,230" fill="1" layer="-1.00" shape="8876.804542,6727.592671 8860.244315,6719.103604 8851.517299,6714.625611 8850.030600,6686.280155 8873.635702,6671.631043 8899.561596,6685.405414 8900.813267,6712.605346 8890.105262,6719.290505 8883.337932,6723.512073 8876.804542,6727.592671"/>
    <poly id="110020077" type="leisure.park" color="207,245,201" fill="1" layer="-2.00" shape="8715.990978,6614.088825 8713.552998,6591.486369 8715.342145,6561.078547 8719.032289,6542.319536 8721.636317,6528.336767 8753.105771,6562.958971 8770.968950,6588.167922 8779.331723,6605.040014 8781.741487,6629.693848 8781.390857,6655.330255 8784.751032,6685.808506 8793.293332,6714.649709 8763.912536,6677.316550 8740.970014,6646.914348 8738.609036,6643.798913 8730.944143,6651.224555 8724.956447,6637.113234 8719.622446,6625.417488 8715.990978,6614.088825"/>
    <poly id="110020078" type="amenity.school" color="237,199,199" fill="1" layer="-1.00" shape="9024.387581,6671.987594 9044.936177,6626.454331 9057.696815,6572.940111 8957.511110,6538.063164 8940.759320,6532.022347 8921.311109,6572.447072 8902.932073,6635.111813 8982.932357,6663.900289 9019.812212,6680.131870 9024.387581,6671.987594"/>
    <poly id="110533137" type="amenity.school" color="237,199,199" fill="1" layer="-1.00" shape="8356.075159,6646.140010 8424.976415,6615.826635 8511.291594,6729.384096 8463.448710,6761.636620 8454.831296,6749.796417 8418.775268,6764.975385 8392.781385,6707.161159 8356.075159,6646.140010"/>
    <poly id="110533151" type="amenity.place_of_worship" color="237,199,199" fill="1" layer="-1.00" shape="8531.519865,6684.011830 8569.284792,6651.100750 8601.524101,6669.452150 8612.625420,6659.777621 8626.862966,6662.367652 8633.946442,6658.094774 8650.427335,6656.789460 8663.532219,6672.317751 8702.079506,6717.993925 8707.878376,6724.871658 8725.639454,6710.696835 8731.902870,6718.213092 8713.666905,6735.220575 8735.078447,6760.843970 8739.150644,6765.724010 8692.340848,6801.782494 8702.915262,6815.035988 8637.211686,6868.758688 8623.996161,6855.912803 8614.761939,6857.317140 8585.781887,6873.523744 8581.624888,6872.812631 8513.581931,6775.751356 8539.514573,6757.096291 8522.029864,6736.096232 8539.493125,6726.719188 8539.618317,6717.549075 8535.310167,6711.590129 8531.829723,6709.579601 8542.913062,6701.213426 8531.519865,6684.011830"/>
    <poly id="110823627" type="natural.wood" color="140,196,107" fill="1" layer="-4.00" shape="9291.372836,6789.371781 9274.773672,6753.332610 9272.747102,6746.827928 9271.761588,6735.468804 9272.595577,6722.038553 9270.842422,6707.108837 9266.567280,6698.776626 9260.334227,6690.428632 9255.059875,6683.225033 9253.153261,6679.472451 9257.673473,6670.628818 9274.552287,6650.487255 9311.734731,6778.461058 9307.566848,6783.272558 9301.669875,6786.274743 9297.410016,6788.323446 9291.372836,6789.371781"/>
    <poly id="110823629" type="natural.wood" color="140,196,107" fill="1" layer="-4.00" shape="9208.899782,6772.524463 9214.561305,6763.685382 9217.606183,6754.821487 9219.877622,6744.161407 9218.874243,6734.099636 9212.033532,6722.016923 9229.589271,6712.043484 9234.845818,6720.544414 9238.162870,6728.364387 9239.840221,6736.649839 9240.881023,6743.307340 9243.668409,6753.881584 9244.880631,6760.219814 9241.655326,6770.057190 9234.957759,6784.061304 9231.829874,6786.125572 9225.850528,6782.960348 9215.197339,6776.170934 9208.899782,6772.524463"/>
    <poly id="110823630" type="leisure.sports_centre" color="207,245,201" fill="1" layer="-2.00" shape="8892.024418,6631.291544 8907.218603,6580.949083 8927.522347,6528.868850 8879.946216,6506.191860 8748.604430,6446.924259 8736.899695,6487.810097 8752.617165,6507.067351 8747.089845,6516.973208 8796.208909,6578.842225 8807.945461,6589.915806 8821.807798,6608.404749 8886.281719,6633.874655 8890.737084,6634.490165 8892.024418,6631.291544"/>
    <poly id="110823630#1" type="sport.multi" color="79,230,125" fill="1" layer="-2.00" shape="8892.024418,6631.291544 8907.218603,6580.949083 8927.522347,6528.868850 8879.946216,6506.191860 8748.604430,6446.924259 8736.899695,6487.810097 8752.617165,6507.067351 8747.089845,6516.973208 8796.208909,6578.842225 8807.945461,6589.915806 8821.807798,6608.404749 8886.281719,6633.874655 8890.737084,6634.490165 8892.024418,6631.291544"/>
    <poly id="110823631" type="natural.wood" color="140,196,107" fill="1" layer="-4.00" shape="8602.980054,6721.164750 8635.835973,6695.040791 8628.777742,6685.240195 8637.473911,6677.041141 8646.771174,6676.469467 8654.603947,6681.201220 8652.399752,6689.023162 8649.063822,6695.454421 8654.252561,6703.521554 8659.029966,6713.845528 8654.286522,6721.410963 8647.801303,6719.936040 8642.246990,6718.928550 8631.742704,6722.943966 8626.601830,6724.958744 8620.831311,6722.794903 8613.815827,6726.170389 8609.612227,6728.186888 8603.396568,6724.641758 8602.980054,6721.164750"/>
    <poly id="110823652" type="natural.wood" color="140,196,107" fill="1" layer="-4.00" shape="9134.989070,6630.705489 9143.370696,6612.997997 9146.909592,6605.327542 9096.035768,6588.360183 9045.957031,6678.593667 9038.767728,6687.866614 9023.193683,6700.873074 9061.106079,6754.826676 9077.465408,6741.398514 9076.751518,6734.579159 9068.789762,6721.671582 9061.590829,6712.012895 9057.482060,6703.039817 9055.481928,6694.594713 9054.740957,6689.072579 9055.973239,6682.446259 9059.541366,6671.959188 9063.910040,6661.971074 9071.653229,6654.946017 9078.410940,6648.728154 9081.581090,6643.581257 9085.406964,6637.312118 9098.233112,6627.772677 9105.776506,6623.816975 9114.739082,6623.296614 9123.172190,6625.519444 9130.135189,6628.698087 9134.989070,6630.705489"/>
    <poly id="110823660" type="building.yes" color="255,230,230" fill="1" layer="-1.00" shape="8660.688385,6711.328470 8668.890904,6704.619914 8659.542993,6693.279698 8651.340320,6699.999351 8654.252561,6703.521554 8660.688385,6711.328470"/>
    <poly id="110823661" type="natural.wood" color="140,196,107" fill="1" layer="-4.00" shape="8702.079506,6717.993925 8692.130195,6721.462339 8686.629652,6715.841917 8678.971787,6715.970157 8674.100893,6715.204889 8671.380561,6710.542982 8673.102174,6703.402059 8669.526579,6693.416125 8664.480382,6688.500627 8661.264600,6686.138773 8658.118058,6678.709518 8660.971137,6673.657974 8663.532219,6672.317751 8702.079506,6717.993925"/>
    <poly id="110823665" type="natural.wood" color="140,196,107" fill="1" layer="-4.00" shape="9138.850914,6633.996877 9151.107902,6607.769580 9165.027672,6617.964140 9203.953264,6634.568299 9235.427407,6641.654512 9267.925366,6645.815899 9247.576372,6670.645490 9244.295427,6673.040369 9240.885067,6672.017597 9236.700809,6668.555382 9227.506798,6662.273971 9217.796972,6658.414312 9207.575447,6656.000498 9196.521741,6654.717600 9185.303302,6653.266097 9177.028269,6651.699718 9169.402422,6649.487912 9160.995960,6645.324566 9152.431452,6640.504720 9145.319555,6636.680770 9138.850914,6633.996877"/>
    <poly id="130968012" type="natural.coastline" color="140,196,107" fill="0" layer="-4.00" shape="9217.361915,10718.423003 8325.225945,11002.455561 8320.460630,10999.551340 8295.284127,10924.890068 8244.219849,10760.974054 8110.929541,10804.583644 7959.258265,10851.382893 7957.497709,10851.924547 7733.458311,10148.867849 7667.604420,9958.093299 8180.244558,9790.324749 8092.428012,9527.325931 8056.627165,9414.846611 8020.232456,9427.049801 7913.985067,9388.972410 7800.973382,9346.811748 7732.580087,9140.431642 7603.926370,8730.689490 7640.732386,8682.845478 8464.255618,8419.896949 8422.662475,8295.315274 8505.902269,8270.067342 8494.221584,8234.651146 8512.360008,8227.956183 8514.556951,8232.866005 8500.552590,8237.831844 8527.749292,8319.962425 8533.115740,8317.673447 8533.535849,8318.843688 8537.111334,8328.796343 8545.135424,8327.575091 8592.605568,8477.557318 8578.546306,8482.489009 8581.030644,8488.766912 8588.621450,8486.652540 8593.077755,8495.962921 8696.815544,8461.669719 8640.947740,8288.758940 8633.630437,8266.100827 8632.864755,8263.739173 8627.557734,8266.428168 8609.223084,8203.970944 8607.485113,8198.069226 8663.913217,8180.108684 8658.918823,8155.175490 8649.505974,8110.684794 8639.494549,8075.357777 8629.317333,8031.788268 8429.343005,8099.515062 8382.117560,8116.937093 8045.167613,8220.666888 8035.934809,8192.748529 7732.425526,8289.424777 7436.859896,8185.092749 7310.171795,7815.951660 7621.056629,7516.173692 7759.890083,7417.999301 7846.003524,7355.110175 7837.742693,7345.016569 7840.506745,7343.057830 7849.211496,7336.865599 7940.294592,7454.608458 8075.646731,7348.683265 8013.728004,7271.338974 7985.325429,7235.008577 7983.647096,7232.867480 7934.037688,7169.421130 7933.043422,7168.154396 7931.801665,7166.662489 7845.890244,7063.518607 7679.420396,7179.849170 7664.877184,7191.629578 7673.824716,7206.534494 7492.847362,7343.343895 7201.617623,7571.514647 7075.319798,7417.459336 6949.442226,7261.526201 7227.535535,7033.270003 7231.118572,7030.446018 7330.506757,6952.094268 7333.746263,6949.287853 7348.869284,6968.723229 7427.896755,6918.643725 7306.581180,6771.795417 7333.029516,6755.306805 7381.633506,6783.091539 7408.260019,6798.013602 7430.179928,6810.310141 7457.831025,6775.594408 7467.384934,6763.590852 7479.723725,6748.098263 7489.202259,6736.182429 7522.810876,6693.983883 7303.023899,6507.130136 7297.218799,6507.495255 7281.415164,6525.979998 7242.783328,6571.161320 7254.319797,6592.355760 7259.290917,6601.506003 7301.886311,6679.781327 7272.757830,6698.185705 7267.527432,6688.998674 7263.720153,6682.315138 7162.362490,6744.182880 7156.723628,6734.313880 7148.482977,6719.884856 7071.309964,6766.642384 7001.852038,6708.655987 7063.961169,6592.634649 7128.515424,6518.313311 7173.808353,6434.793294 7289.113964,6203.652770 7177.889073,6146.442638 6873.408198,5988.965763 6776.001910,6171.975676 7051.353966,6312.432046 7044.689159,6324.918608 7043.765629,6326.647337 7038.624190,6336.282048 7037.005510,6339.321153 6998.187723,6412.082719 6971.840414,6463.031462 6832.153486,6388.650582 6397.598911,7206.320844 5913.165069,6947.365785 6079.388365,6628.403630 6249.270512,6307.286114 5915.577877,6128.820250 5917.547039,6119.674887 6225.920266,5974.428931 6547.392544,6144.478947 6714.835514,5829.136313 6662.270020,5801.435079 6317.370630,5619.699800 6211.944881,5820.640327 6118.216342,5770.841885 6220.285087,5577.197207 6020.189953,5469.325174 5854.910677,5681.079977 5781.539201,5623.128477 5843.981734,5547.461903 5830.398018,5493.703033 5587.209809,5428.561029 5496.161681,5638.794626 5431.684650,5666.803382 5384.208176,5783.495184 5515.676130,5817.952473 5544.479572,5720.841681 5664.859085,5739.171986 5785.269586,5751.681816 5784.518126,5757.216935 5772.843952,5764.768734 5744.396189,5869.824361 5735.229301,5903.682654 5719.248786,5962.680428 5717.686839,5968.448714 5710.072185,5996.582973 5683.441312,5989.284834 5671.601824,6033.576755 5699.375423,6042.165512 5698.164321,6045.986590 5693.561373,6060.564347 5599.368414,6412.788721 5434.922620,6431.567429 5458.187720,6453.182018 5462.939280,6497.728607 5472.200198,6496.388146 5474.248298,6516.089670 5444.149267,6519.137520 5441.772220,6499.742150 5449.631601,6499.114947 5444.185238,6455.169074 5421.451177,6434.093932 5230.742663,6456.407759 5250.233655,6622.167745 5246.496953,6622.628167 4884.431766,6667.755867 4845.134045,6365.345803 4746.159125,6377.319466 4745.336853,6371.441810 4794.736255,6366.496165 4793.968444,6337.617989 4785.927379,6337.245198 4770.881212,6258.360193 4782.290160,6249.705777 4786.526608,6232.560931 4758.692197,6201.948730 4741.443836,6191.849754 4719.986329,6184.234703 4666.269568,6182.957388 4638.390821,6184.384756 4608.341318,6189.953402 4572.881876,6201.794160 4543.602197,6220.027185 4497.413340,6267.758487 4496.241091,6297.442701 4582.589393,6378.435346 4623.446110,6376.647365 4627.914800,6382.584388 4625.134430,6389.312632 4619.717601,6391.902562 4583.323483,6393.084218 4580.631222,6393.159479 4576.742711,6385.455716 4579.948813,6381.616566 4496.712731,6303.881293 4454.750672,6269.234791 4459.060527,6266.142156 4481.197269,6284.146094 4481.918909,6264.670051 4461.515606,6233.480539 4442.651518,6206.592271 4422.079142,6191.681118 4398.556798,6181.588549 4336.982190,6181.517861 4300.422478,6191.670445 4268.685576,6216.814327 4251.781982,6243.828777 4288.856891,6260.698674 4282.355501,6270.926742 4202.770329,6233.444533 4204.476241,6229.352567 4186.223591,6220.073123 4185.142142,6223.962618 4030.432891,6149.758051 3852.157394,6013.562055 3868.590921,5991.176470 3871.679753,5993.412993 4032.856941,6110.186766 4097.728140,6021.455055 3938.207059,5902.894343 3934.981362,5900.478554 3940.795486,5862.792897"/>
    <poly id="137154025" type="amenity.parking" color="184,184,179" fill="1" layer="-1.00" shape="8738.313956,5761.115011 8744.457663,5755.709206 8748.836702,5751.754315 8780.437135,5789.206319 8775.782057,5794.344102 8768.280938,5798.566829 8740.148182,5763.402538 8738.313956,5761.115011"/>
    <poly id="137154026" type="amenity.parking" color="184,184,179" fill="1" layer="-1.00" shape="8721.422303,5620.545385 8751.092860,5648.488538 8749.787407,5649.613012 8748.389766,5650.691863 8755.606738,5657.078810 8768.560357,5644.390948 8731.676608,5609.783599 8721.422303,5620.545385"/>
    <poly id="142235670" type="building.retail" color="255,230,230" fill="1" layer="-1.00" shape="7128.869741,4646.161655 7149.956067,4653.222470 7145.572167,4664.431111 7147.788523,4665.958226 7139.590596,4692.231561 7132.709252,4695.232898 7125.410278,4692.040178 7135.034333,4661.194668 7124.862014,4657.009399 7128.869741,4646.161655"/>
    <poly id="142235670#1" type="shop.computer" color="237,199,255" fill="1" layer="-1.00" shape="7128.869741,4646.161655 7149.956067,4653.222470 7145.572167,4664.431111 7147.788523,4665.958226 7139.590596,4692.231561 7132.709252,4695.232898 7125.410278,4692.040178 7135.034333,4661.194668 7124.862014,4657.009399 7128.869741,4646.161655"/>
    <poly id="149584785" type="building.yes" color="255,230,230" fill="1" layer="-1.00" shape="9133.269458,4754.260163 9131.981398,4769.003928 9127.973666,4768.172671 9120.284833,4766.381552 9113.683150,4763.829003 9082.107146,4741.359613 9095.058527,4726.243291 9133.269458,4754.260163"/>
    <poly id="149584786" type="building.yes" color="255,230,230" fill="1" layer="-1.00" shape="9220.742746,4613.534560 9221.019889,4606.185376 9207.595323,4605.690758 9207.327470,4613.040069 9220.742746,4613.534560"/>
    <poly id="149584787" type="building.yes" color="255,230,230" fill="1" layer="-1.00" shape="9218.928320,4695.080117 9194.233250,4694.741494 9194.033176,4709.333814 9218.728209,4709.672438 9218.928320,4695.080117"/>
    <poly id="149584789" type="building.yes" color="255,230,230" fill="1" layer="-1.00" shape="9171.573549,4688.120357 9158.636854,4676.420023 9151.701012,4684.021742 9164.637705,4695.722067 9171.573549,4688.120357"/>
    <poly id="149584790" type="building.yes" color="255,230,230" fill="1" layer="-1.00" shape="9170.122957,4556.944559 9160.067790,4569.993299 9166.874717,4575.188219 9176.929737,4562.150574 9170.122957,4556.944559"/>
    <poly id="149584792" type="building.yes" color="255,230,230" fill="1" layer="-1.00" shape="9184.312591,4561.220370 9190.309995,4553.694529 9184.010604,4548.717270 9178.013202,4556.243115 9184.312591,4561.220370"/>
    <poly id="149584794" type="building.yes" color="255,230,230" fill="1" layer="-1.00" shape="9199.501339,4584.019900 9186.341645,4572.327568 9176.651576,4583.118841 9189.811114,4594.822248 9199.501339,4584.019900"/>
    <poly id="149584795" type="building.yes" color="255,230,230" fill="1" layer="-1.00" shape="9099.722609,4719.819269 9093.835434,4715.246970 9090.377758,4719.657967 9096.264931,4724.230264 9099.722609,4719.819269"/>
    <poly id="149584796" type="building.apartment" color="255,230,230" fill="1" layer="-1.00" shape="9002.843915,4627.051535 9021.650242,4640.562129 9023.952015,4637.865392 9028.244415,4631.469518 9009.438078,4617.958912 9002.843915,4627.051535"/>
    <poly id="149584797" type="building.yes" color="255,230,230" fill="1" layer="-1.00" shape="8996.467464,4635.836609 9015.273782,4649.347191 9018.524848,4645.110786 9021.650242,4640.562129 9002.843915,4627.051535 8996.467464,4635.836609"/>
    <poly id="149584798" type="building.yes" color="255,230,230" fill="1" layer="-1.00" shape="9063.324084,4617.066535 9052.727400,4631.716079 9060.842892,4637.605364 9071.540149,4623.068110 9063.324084,4617.066535"/>
    <poly id="149584799" type="building.yes" color="255,230,230" fill="1" layer="-1.00" shape="9219.561810,4671.898621 9219.916261,4646.051586 9212.714655,4645.952831 9212.360224,4671.799866 9219.561810,4671.898621"/>
    <poly id="149584801" type="building.yes" color="255,230,230" fill="1" layer="-1.00" shape="9212.756317,4642.914612 9207.615080,4638.773910 9192.961620,4656.827911 9198.103005,4660.957517 9212.756317,4642.914612"/>
    <poly id="149584803" type="building.yes" color="255,230,230" fill="1" layer="-1.00" shape="9054.841312,4661.034951 9048.090293,4670.735371 9055.345394,4675.736723 9062.096418,4666.036308 9054.841312,4661.034951"/>
    <poly id="149584805" type="building.yes" color="255,230,230" fill="1" layer="-1.00" shape="9184.770511,4546.099246 9189.011191,4540.778505 9181.674035,4534.988507 9177.433357,4540.309251 9184.770511,4546.099246"/>
    <poly id="149584806" type="building.yes" color="255,230,230" fill="1" layer="-1.00" shape="9147.362939,4569.131556 9136.122204,4582.674233 9169.578674,4610.193538 9180.819580,4596.639811 9147.362939,4569.131556"/>
    <poly id="149584807" type="building.yes" color="255,230,230" fill="1" layer="-1.00" shape="9054.841312,4661.034951 9060.986400,4652.202383 9045.961162,4641.848821 9039.825362,4650.681526 9048.689672,4656.791774 9054.841312,4661.034951"/>
    <poly id="149584809" type="building.yes" color="255,230,230" fill="1" layer="-1.00" shape="9150.258585,4651.107635 9162.606226,4661.091948 9172.603963,4648.840940 9160.247034,4638.856487 9150.258585,4651.107635"/>
    <poly id="149584810" type="building.yes" color="255,230,230" fill="1" layer="-1.00" shape="9221.019889,4606.185376 9221.314219,4598.259724 9207.889642,4597.765106 9207.595323,4605.690758 9221.019889,4606.185376"/>
    <poly id="149584811" type="building.yes" color="255,230,230" fill="1" layer="-1.00" shape="9041.938657,4666.492199 9048.689672,4656.791774 9039.825362,4650.681526 9033.065071,4660.381829 9041.938657,4666.492199"/>
    <poly id="149584812" type="building.yes" color="255,230,230" fill="1" layer="-1.00" shape="9013.950058,4613.151975 9048.066500,4637.907268 9063.324084,4617.066535 9029.207602,4592.311190 9013.950058,4613.151975"/>
    <poly id="149584813" type="building.yes" color="255,230,230" fill="1" layer="-1.00" shape="9059.795958,4692.355747 9042.668485,4715.544233 9066.682579,4731.710329 9084.382747,4709.405876 9059.795958,4692.355747"/>
    <poly id="149584815" type="building.yes" color="255,230,230" fill="1" layer="-1.00" shape="9139.723051,4691.765080 9145.095403,4697.328494 9149.468830,4693.151877 9144.105911,4687.577499 9139.723051,4691.765080"/>
    <poly id="149584816" type="building.yes" color="255,230,230" fill="1" layer="-1.00" shape="9054.711568,4687.450665 9016.200914,4660.272902 8998.086650,4685.710407 9036.597397,4712.877012 9054.711568,4687.450665"/>
    <poly id="149584817" type="building.yes" color="255,230,230" fill="1" layer="-1.00" shape="9041.938657,4666.492199 9048.090293,4670.735371 9054.841312,4661.034951 9048.689672,4656.791774 9041.938657,4666.492199"/>
    <poly id="149584818" type="building.apartment" color="255,230,230" fill="1" layer="-1.00" shape="8953.021179,4590.137026 8946.783808,4598.935125 8981.977602,4623.660555 8988.053906,4615.780780 8953.021179,4590.137026"/>
    <poly id="149584820" type="building.yes" color="255,230,230" fill="1" layer="-1.00" shape="9197.328410,4530.600577 9184.836988,4518.906324 9177.650444,4526.504592 9190.151145,4538.198963 9197.328410,4530.600577"/>
    <poly id="149584823" type="building.yes" color="255,230,230" fill="1" layer="-1.00" shape="9160.603804,4720.498339 9154.622023,4726.893181 9168.773783,4740.007570 9174.755565,4733.612736 9160.603804,4720.498339"/>
    <poly id="149584824" type="building.yes" color="255,230,230" fill="1" layer="-1.00" shape="9174.879316,4685.991942 9181.496906,4678.585504 9167.043687,4665.788593 9160.426252,4673.183952 9174.879316,4685.991942"/>
    <poly id="149584825" type="building.yes" color="255,230,230" fill="1" layer="-1.00" shape="9176.651576,4583.118841 9184.015161,4574.791029 9174.907255,4566.814118 9167.543672,4575.141936 9176.651576,4583.118841"/>
    <poly id="149584827" type="building.yes" color="255,230,230" fill="1" layer="-1.00" shape="9205.189988,4637.598339 9181.298603,4617.895721 9168.425757,4633.356818 9192.317127,4653.059405 9205.189988,4637.598339"/>
    <poly id="149584828" type="building.yes" color="255,230,230" fill="1" layer="-1.00" shape="9018.524848,4645.110786 9032.343826,4656.113214 9037.999516,4649.126037 9023.952015,4637.865392 9021.650242,4640.562129 9018.524848,4645.110786"/>
    <poly id="149584829" type="building.yes" color="255,230,230" fill="1" layer="-1.00" shape="9175.578022,4540.904884 9168.404859,4534.662435 9162.115501,4541.818302 9169.279381,4548.060619 9175.578022,4540.904884"/>
    <poly id="149584830" type="building.yes" color="255,230,230" fill="1" layer="-1.00" shape="9207.199251,4634.576009 9220.293939,4634.755572 9220.419083,4625.629828 9207.324382,4625.450266 9207.199251,4634.576009"/>
    <poly id="149584832" type="building.yes" color="255,230,230" fill="1" layer="-1.00" shape="9060.658547,4678.171764 9091.131666,4700.537237 9104.816047,4682.059466 9074.342897,4659.693951 9060.658547,4678.171764"/>
    <poly id="149584833" type="building.yes" color="255,230,230" fill="1" layer="-1.00" shape="9176.213324,4652.328465 9167.118048,4663.072446 9186.205414,4679.082585 9195.300546,4668.349710 9176.213324,4652.328465"/>
    <poly id="149584835" type="building.yes" color="255,230,230" fill="1" layer="-1.00" shape="9133.516477,4731.494810 9154.851658,4708.785588 9135.925545,4691.169603 9114.590374,4713.878866 9133.516477,4731.494810"/>
    <poly id="149584836" type="building.yes" color="255,230,230" fill="1" layer="-1.00" shape="9030.601456,4540.681990 9042.975061,4550.145239 9047.085883,4544.811570 9034.712274,4535.348315 9030.601456,4540.681990"/>
    <poly id="149584838" type="building.yes" color="255,230,230" fill="1" layer="-1.00" shape="9207.375147,4550.667905 9191.882532,4570.340705 9205.493153,4580.963451 9220.985933,4561.279585 9207.375147,4550.667905"/>
    <poly id="149584840" type="building.yes" color="255,230,230" fill="1" layer="-1.00" shape="9136.020441,4669.344857 9126.630207,4678.587618 9139.723051,4691.765080 9149.113438,4682.511244 9136.020441,4669.344857"/>
    <poly id="149584841" type="building.yes" color="255,230,230" fill="1" layer="-1.00" shape="9013.896254,4588.608044 8974.394799,4561.217282 8953.021179,4590.137026 8993.022821,4618.277613 9013.896254,4588.608044"/>
    <poly id="149584845" type="building.yes" color="255,230,230" fill="1" layer="-1.00" shape="9167.615701,4557.021095 9157.470789,4549.529058 9148.572634,4561.462440 9158.717540,4568.954468 9167.615701,4557.021095"/>
    <poly id="149584846" type="building.yes" color="255,230,230" fill="1" layer="-1.00" shape="9207.889642,4597.765106 9202.510425,4592.700635 9198.376094,4597.035776 9203.755159,4602.111333 9207.889642,4597.765106"/>
    <poly id="149584847" type="building.yes" color="255,230,230" fill="1" layer="-1.00" shape="9189.084172,4621.440505 9205.207046,4605.214392 9197.953310,4598.083575 9181.839871,4614.298738 9189.084172,4621.440505"/>
    <poly id="149584849" type="building.yes" color="255,230,230" fill="1" layer="-1.00" shape="9180.505640,4698.080056 9185.332234,4702.149888 9190.379628,4696.208053 9185.543601,4692.149179 9180.505640,4698.080056"/>
    <poly id="149584850" type="building.yes" color="255,230,230" fill="1" layer="-1.00" shape="9093.090748,4640.875178 9090.755784,4643.283092 9081.683398,4653.040412 9080.127523,4654.815754 9108.171836,4678.989024 9120.928625,4665.212014 9093.090748,4640.875178"/>
    <poly id="149584854" type="building.yes" color="255,230,230" fill="1" layer="-1.00" shape="9184.584074,4766.198208 9183.243030,4740.117208 9164.917295,4741.684818 9152.091595,4731.372320 9148.201491,4733.470551 9147.370128,4737.917526 9142.803181,4740.638640 9142.460781,4765.620781 9184.584074,4766.198208"/>
    <poly id="149584855" type="building.yes" color="255,230,230" fill="1" layer="-1.00" shape="9078.064594,4636.687852 9079.764994,4634.526323 9090.755784,4643.283092 9081.683398,4653.040412 9077.898603,4650.160496 9072.901473,4656.502333 9066.194076,4652.173899 9066.869085,4651.007555 9078.064594,4636.687852"/>
    <poly id="149584856" type="building.yes" color="255,230,230" fill="1" layer="-1.00" shape="9066.869085,4651.007555 9059.994618,4646.000319 9064.863353,4640.222330 9060.842892,4637.605364 9071.540149,4623.068110 9074.607964,4627.468686 9072.139627,4632.159414 9078.064594,4636.687852 9066.869085,4651.007555"/>
    <poly id="149584860" type="building.yes" color="255,230,230" fill="1" layer="-1.00" shape="9200.879616,4671.697895 9218.274070,4686.609112 9215.288859,4690.405480 9208.120096,4683.852521 9205.065814,4687.270868 9202.940934,4689.925627 9197.966925,4686.452650 9195.922841,4689.984665 9189.596451,4683.598537 9200.879616,4671.697895"/>
    <poly id="149725034" type="building.retail" color="255,230,230" fill="1" layer="-1.00" shape="8921.573009,4628.811655 8929.736649,4634.579489 8935.708062,4626.221359 8927.544569,4620.442432 8921.573009,4628.811655"/>
    <poly id="149725034#1" type="shop.yes" color="237,199,255" fill="1" layer="-1.00" shape="8921.573009,4628.811655 8929.736649,4634.579489 8935.708062,4626.221359 8927.544569,4620.442432 8921.573009,4628.811655"/>
    <poly id="149725035" type="building.yes" color="255,230,230" fill="1" layer="-1.00" shape="9023.690866,4300.345814 9017.526155,4309.921202 9030.629881,4318.285369 9036.803881,4308.710116 9023.690866,4300.345814"/>