<?xml version="1.0" encoding="UTF-8"?>
<additional xmlns:xsi="http://www.w3.org/2001/XMLSchema-instance" xsi:noNamespaceSchemaLocation="http://sumo.sf.net/xsd/additional_file.xsd">

    <vType id="Fukuoka3000Type" vClass="rail_urban" length="66.5" carFollowModel="Rail" guiShape="rail" maxSpeed="19.444" accel="0.889" decel="1.11" emergencyDecel="1.25" personCapacity="378" />

    <!-- From Hashimoto -->
    <route id="HMtoTM" edges="23322477">
        <stop busStop="Hashimoto_01" duration="20" />
        <stop busStop="Jiromaru_01" duration="30" />
        <stop busStop="Kamo_01" duration="30" />
        <stop busStop="Noke_01" duration="40" />
        <stop busStop="Umebayashi_01" duration="30" />
        <stop busStop="FukudaiMae_01" duration="30" />
        <stop busStop="Nanakuma_01" duration="40" />
        <stop busStop="Kanayama_01" duration="30" />
        <stop busStop="Chayama_01" duration="40" />
        <stop busStop="Befu_01" duration="40" />
        <stop busStop="Ropponmatsu_01" duration="50" />
        <stop busStop="Sakurazaka_01" duration="40" />
        <stop busStop="YakuinOdori_01" duration="30" />
        <stop busStop="Yakuin_01" duration="70" />
        <stop busStop="WatanabeDori_01" duration="40" />
        <stop busStop="TenjinMinami_01" duration="20" />
    </route>

    <!-- From TenjinMinami -->
    <route id="TMtoHM" edges="-23322477">
        <stop busStop="TenjinMinami_02" duration="20" />
        <stop busStop="WatanabeDori_02" duration="40" />
        <stop busStop="Yakuin_02" duration="70" />
        <stop busStop="YakuinOdori_02" duration="30" />
        <stop busStop="Sakurazaka_02" duration="40" />
        <stop busStop="Ropponmatsu_02" duration="50" />
        <stop busStop="Befu_02" duration="40" />
        <stop busStop="Chayama_02" duration="40" />
        <stop busStop="Kanayama_02" duration="30" />
        <stop busStop="Nanakuma_02" duration="40" />
        <stop busStop="FukudaiMae_02" duration="30" />
        <stop busStop="Umebayashi_02" duration="30" />
        <stop busStop="Noke_02" duration="40" />
        <stop busStop="Kamo_02" duration="30" />
        <stop busStop="Jiromaru_02" duration="30" />
        <stop busStop="Hashimoto_02" duration="20" />
    </route>

<!-- To TenjinMinami -->
<!-- 05:00- (18000- ) -->
    <vehicle id="FromHashimoto0530" type="Fukuoka3000Type" route="HMtoTM" depart="19800" line="Nanakuma" departPos="base" arrivalPos="max" color="0,140,94" />
    <vehicle id="FromHashimoto0545" type="Fukuoka3000Type" route="HMtoTM" depart="20700" line="Nanakuma" departPos="base" arrivalPos="max" color="0,140,94" />

<!-- 06:00- (21600- ) -->
    <vehicle id="FromHashimoto0600" type="Fukuoka3000Type" route="HMtoTM" depart="21600" line="Nanakuma" departPos="base" arrivalPos="max" color="0,140,94" />
    <vehicle id="FromHashimoto0610" type="Fukuoka3000Type" route="HMtoTM" depart="22200" line="Nanakuma" departPos="base" arrivalPos="max" color="0,140,94" />
    <vehicle id="FromHashimoto0620" type="Fukuoka3000Type" route="HMtoTM" depart="22800" line="Nanakuma" departPos="base" arrivalPos="max" color="0,140,94" />
    <vehicle id="FromHashimoto0630" type="Fukuoka3000Type" route="HMtoTM" depart="23400" line="Nanakuma" departPos="base" arrivalPos="max" color="0,140,94" />
    <vehicle id="FromHashimoto0640" type="Fukuoka3000Type" route="HMtoTM" depart="24000" line="Nanakuma" departPos="base" arrivalPos="max" color="0,140,94" />
    <vehicle id="FromHashimoto0650" type="Fukuoka3000Type" route="HMtoTM" depart="24600" line="Nanakuma" departPos="base" arrivalPos="max" color="0,140,94" />

<!-- 07:00- (25200- ) -->
    <vehicle id="FromHashimoto0700" type="Fukuoka3000Type" route="HMtoTM" depart="25200" line="Nanakuma" departPos="base" arrivalPos="max" color="0,140,94" />
    <vehicle id="FromHashimoto0706" type="Fukuoka3000Type" route="HMtoTM" depart="25560" line="Nanakuma" departPos="base" arrivalPos="max" color="0,140,94" />
    <vehicle id="FromHashimoto0712" type="Fukuoka3000Type" route="HMtoTM" depart="25620" line="Nanakuma" departPos="base" arrivalPos="max" color="0,140,94" />
    <vehicle id="FromHashimoto0718" type="Fukuoka3000Type" route="HMtoTM" depart="26280" line="Nanakuma" departPos="base" arrivalPos="max" color="0,140,94" />
    <vehicle id="FromHashimoto0724" type="Fukuoka3000Type" route="HMtoTM" depart="26640" line="Nanakuma" departPos="base" arrivalPos="max" color="0,140,94" />
    <vehicle id="FromHashimoto0730" type="Fukuoka3000Type" route="HMtoTM" depart="27000" line="Nanakuma" departPos="base" arrivalPos="max" color="0,140,94" />
    <vehicle id="FromHashimoto0735" type="Fukuoka3000Type" route="HMtoTM" depart="27300" line="Nanakuma" departPos="base" arrivalPos="max" color="0,140,94" />
    <vehicle id="FromHashimoto0740" type="Fukuoka3000Type" route="HMtoTM" depart="27600" line="Nanakuma" departPos="base" arrivalPos="max" color="0,140,94" />
    <vehicle id="FromHashimoto0744" type="Fukuoka3000Type" route="HMtoTM" depart="27840" line="Nanakuma" departPos="base" arrivalPos="max" color="0,140,94" />
    <vehicle id="FromHashimoto0748" type="Fukuoka3000Type" route="HMtoTM" depart="28080" line="Nanakuma" departPos="base" arrivalPos="max" color="0,140,94" />
    <vehicle id="FromHashimoto0752" type="Fukuoka3000Type" route="HMtoTM" depart="28320" line="Nanakuma" departPos="base" arrivalPos="max" color="0,140,94" />
    <vehicle id="FromHashimoto0756" type="Fukuoka3000Type" route="HMtoTM" depart="28560" line="Nanakuma" departPos="base" arrivalPos="max" color="0,140,94" />


<!-- To Hashimoto -->
<!-- 06:00- (21600- ) -->
    <vehicle id="FromTenjinMinami0600" type="Fukuoka3000Type" route="TMtoHM" depart="21600" line="Nanakuma" departPos="base" arrivalPos="max" color="50,205,50" />
    <vehicle id="FromTenjinMinami0615" type="Fukuoka3000Type" route="TMtoHM" depart="22500" line="Nanakuma" departPos="base" arrivalPos="max" color="50,205,50" />
    <vehicle id="FromTenjinMinami0630" type="Fukuoka3000Type" route="TMtoHM" depart="23400" line="Nanakuma" departPos="base" arrivalPos="max" color="50,205,50" />
    <vehicle id="FromTenjinMinami0640" type="Fukuoka3000Type" route="TMtoHM" depart="24000" line="Nanakuma" departPos="base" arrivalPos="max" color="50,205,50" />
    <vehicle id="FromTenjinMinami0650" type="Fukuoka3000Type" route="TMtoHM" depart="24600" line="Nanakuma" departPos="base" arrivalPos="max" color="50,205,50" />

<!-- 07:00- (25200- ) -->
    <vehicle id="FromTenjinMinami0700" type="Fukuoka3000Type" route="TMtoHM" depart="25200" line="Nanakuma" departPos="base" arrivalPos="max" color="50,205,50" />
    <vehicle id="FromTenjinMinami0710" type="Fukuoka3000Type" route="TMtoHM" depart="25800" line="Nanakuma" departPos="base" arrivalPos="max" color="50,205,50" />
    <vehicle id="FromTenjinMinami0720" type="Fukuoka3000Type" route="TMtoHM" depart="26400" line="Nanakuma" departPos="base" arrivalPos="max" color="50,205,50" />
    <vehicle id="FromTenjinMinami0730" type="Fukuoka3000Type" route="TMtoHM" depart="27000" line="Nanakuma" departPos="base" arrivalPos="max" color="50,205,50" />
    <vehicle id="FromTenjinMinami0736" type="Fukuoka3000Type" route="TMtoHM" depart="27360" line="Nanakuma" departPos="base" arrivalPos="max" color="50,205,50" />
    <vehicle id="FromTenjinMinami0742" type="Fukuoka3000Type" route="TMtoHM" depart="27720" line="Nanakuma" departPos="base" arrivalPos="max" color="50,205,50" />
    <vehicle id="FromTenjinMinami0748" type="Fukuoka3000Type" route="TMtoHM" depart="28080" line="Nanakuma" departPos="base" arrivalPos="max" color="50,205,50" />
    <vehicle id="FromTenjinMinami0754" type="Fukuoka3000Type" route="TMtoHM" depart="28440" line="Nanakuma" departPos="base" arrivalPos="max" color="50,205,50" />

</additional>