<?xml version="1.0" encoding="UTF-8"?>

<!-- generated on Tue Dec 18 10:58:37 2018 by Eclipse SUMO jtrrouter Version v1_0_1+1121-31d2d9ce30
This data file and the accompanying materials
are made available under the terms of the Eclipse Public License v2.0
which accompanies this distribution, and is available at
http://www.eclipse.org/legal/epl-v20.html
SPDX-License-Identifier: EPL-2.0
-->

<configuration xmlns:xsi="http://www.w3.org/2001/XMLSchema-instance" xsi:noNamespaceSchemaLocation="http://sumo.dlr.de/xsd/jtrrouterConfiguration.xsd">

    <input>
        <net-file value="hakata-tenjin.net.xml"/>
        <route-files value="flow_data/Nanotsu-Area.flows.xml, flow_data/Akasaka.flows.xml, flow_data/Tenjin.flows.xml, flow_data/ShiyakushoMae.flows.xml, flow_data/Kego.flows.xml, flow_data/Daimyo-1chome.flows.xml, flow_data/TenjinMinamiEki.flows.xml, flow_data/Watanabe-Dori-1chome.flows.xml"/>
        <turn-ratio-files value="junction-turn-ratio.turns.xml"/>
    </input>

    <output>
        <write-license value="true"/>
        <output-file value="routes.rou.xml"/>
    </output>

    <processing>
        <remove-loops value="true" />
        <!-- <turn-defaults value="60,30,10" /> -->
        <accept-all-destinations value="false" />
        <sink-edges value="-169512352#0, -493376596#2, -41234692#3, -41720514#5, -96534958#3, -96534928#5, 96534889#1, 41234686#1, 63682734#1, 503961111, -169511772#1, -66333895#13, 46679220#0, 179129032#1, --225168#0, 161950325#1, 169407117#3, --225574, -258878955, -221621, 81798307#1, -209367163, -43111059#8, -187037492#2, 46698934#1, 178150643, 46698935#0, 161950328#0, --225404#1, 96531884#1, -46679219#6, 68756871, -520149464#2, -179084431#7, -520146155#1, 41234693#1, 169800686#1, -68757112#12, 41720513#0, -41720513#5, -95482882#10, 174921907#0, 43105757#0, -43105756#11, 68756857#1, 520149463#1, 68756862#0, -68756861#3, 314741788#1, 46679219#1, -225370#1, 140551482#0, 175154941#0, 46872312, 169674143#1, -45245579, 43111059#4, -43111059#3, 582588879, -169407113#14, 169407114#1, -169674150#1, 95490986#1, 39528682#0, 95482882#9, -95482882#5, -95484971#4, 45802478#1, 264568863#2, 43105756#10, -43105756#8, 169489048#0, 179084414, 314744552#1, 68756864#1, 96531331#0, -46678989#3, 46875036#1, -225344#0, -140551482#1, 169674155#0, -46872317#1, 368888538#0, -226858#0, -70417525#0, 169673031#0, 169674144#0, 43111059#1, 169673055#0, -169673041#4, 169407113#12, -169407113#9, 304520255#1, 179084432#1, 169489043#1, 65433227#1, 43105222#0, 207902938#0, --225833#3, 179084413#1, -61460562#3, -179084434#6, 46872314#0, 169489044#0, -32008467#2, 33111547#2, -96534727#3, 315455109#1, 315455103#1, -96534347#3, 169516526#1, -220403, 177338890#0, 56131477#1, 315455101#1, 63682731#1, -169511777#1, -217018808#4, 217018808#7, -179129045#0, 503685749#2, -169407119#2, 206789981, 362162012#0, 206789952#1, 169673056#1, 169673058#0, 42762530#1, 40745158#1, 169673037#1, 169673054#8, -169673054#4, -44889593#8, 95483239#0, -169674141#0, -169673061#3, 304520255#1, 179209763#1, -47004447#5, -169674140#6, 39528682#0, -206636944#9, 179703162#1, 175150507#1, --226653#1, 175150518#1, 175150525#1, -178150021#0, -169512347#0, -43557608#2, -169512345#1, 175150528#1, 178150559#1, 140550418#1, 149683828, 175150526, 149683833#1, 149683823#1, -75212986#2, 358569802#0, -149683840#8, 194289094#1, -46874228#0, 174579062, 40745201#1, 268408808#2"/>
    </processing>

    <report>
        <xml-validation value="never"/>
        <ignore-errors value="true"/>
        <no-step-log value="true"/>
    </report>

</configuration>
