<?xml version="1.0" encoding="UTF-8"?>

<!-- generated on Fri Jan 20 00:30:34 2017 by SUMO netconvert Version 0.27.1
<?xml version="1.0" encoding="UTF-8"?>

<configuration xmlns:xsi="http://www.w3.org/2001/XMLSchema-instance" xsi:noNamespaceSchemaLocation="http://sumo.dlr.de/xsd/netconvertConfiguration.xsd">

    <input>
        <type-files value="/Users/fujii/sumo/data/typemap/osmNetconvert.typ.xml"/>
        <osm-files value="osm_bbox.osm.xml"/>
    </input>

    <output>
        <output-file value="/Users/fujii/sumo/tools/2017-01-20-00-30-18/osm.net.xml"/>
        <output.street-names value="true"/>
        <output.original-names value="true"/>
    </output>

    <projection>
        <proj.utm value="true"/>
    </projection>

    <tls_building>
        <tls.discard-simple value="true"/>
        <tls.join value="true"/>
        <tls.guess-signals value="true"/>
    </tls_building>

    <ramp_guessing>
        <ramps.guess value="true"/>
    </ramp_guessing>

    <processing>
        <geometry.remove value="true"/>
        <roundabouts.guess value="true"/>
        <junctions.join value="true"/>
        <junctions.corner-detail value="5"/>
    </processing>

    <report>
        <verbose value="true"/>
    </report>

</configuration>
-->

<net version="0.27" junctionCornerDetail="5" xmlns:xsi="http://www.w3.org/2001/XMLSchema-instance" xsi:noNamespaceSchemaLocation="http://sumo.dlr.de/xsd/net_file.xsd">

    <location netOffset="-609901.35,-3715638.79" convBoundary="0.00,0.00,7015.75,5227.53" origBoundary="130.184271,33.545901,130.260000,33.621905" projParameter="+proj=utm +zone=52 +ellps=WGS84 +datum=WGS84 +units=m +no_defs"/>

    <type id="highway.bridleway" priority="1" numLanes="1" speed="2.78" allow="pedestrian" oneway="1" width="2.00"/>
    <type id="highway.bus_guideway" priority="1" numLanes="1" speed="8.33" allow="bus" oneway="1"/>
    <type id="highway.cycleway" priority="1" numLanes="1" speed="5.56" allow="bicycle" oneway="0" width="1.00"/>
    <type id="highway.footway" priority="1" numLanes="1" speed="2.78" allow="pedestrian" oneway="1" width="2.00"/>
    <type id="highway.ford" priority="1" numLanes="1" speed="2.78" allow="army" oneway="0"/>
    <type id="highway.living_street" priority="3" numLanes="1" speed="2.78" disallow="tram rail_urban rail rail_electric ship" oneway="0"/>
    <type id="highway.motorway" priority="13" numLanes="2" speed="44.44" allow="private emergency authority army vip passenger hov taxi bus coach delivery truck trailer motorcycle evehicle custom1 custom2" oneway="1"/>
    <type id="highway.motorway_link" priority="12" numLanes="1" speed="22.22" allow="private emergency authority army vip passenger hov taxi bus coach delivery truck trailer motorcycle evehicle custom1 custom2" oneway="1"/>
    <type id="highway.path" priority="1" numLanes="1" speed="2.78" allow="bicycle pedestrian" oneway="1" width="2.00"/>
    <type id="highway.pedestrian" priority="1" numLanes="1" speed="2.78" allow="pedestrian" oneway="1" width="2.00"/>
    <type id="highway.primary" priority="9" numLanes="2" speed="27.78" disallow="tram rail_urban rail rail_electric ship" oneway="0"/>
    <type id="highway.primary_link" priority="8" numLanes="1" speed="22.22" disallow="tram rail_urban rail rail_electric ship" oneway="0"/>
    <type id="highway.raceway" priority="14" numLanes="2" speed="83.33" allow="vip" oneway="0"/>
    <type id="highway.residential" priority="4" numLanes="1" speed="13.89" disallow="tram rail_urban rail rail_electric ship" oneway="0"/>
    <type id="highway.secondary" priority="7" numLanes="2" speed="27.78" disallow="tram rail_urban rail rail_electric ship" oneway="0"/>
    <type id="highway.secondary_link" priority="6" numLanes="1" speed="22.22" disallow="tram rail_urban rail rail_electric ship" oneway="0"/>
    <type id="highway.service" priority="2" numLanes="1" speed="5.56" allow="delivery bicycle pedestrian" oneway="0"/>
    <type id="highway.services" priority="1" numLanes="1" speed="8.33" disallow="tram rail_urban rail rail_electric ship" oneway="0"/>
    <type id="highway.stairs" priority="1" numLanes="1" speed="1.39" allow="pedestrian" oneway="1" width="2.00"/>
    <type id="highway.step" priority="1" numLanes="1" speed="1.39" allow="pedestrian" oneway="1" width="2.00"/>
    <type id="highway.steps" priority="1" numLanes="1" speed="1.39" allow="pedestrian" oneway="1" width="2.00"/>
    <type id="highway.tertiary" priority="6" numLanes="1" speed="22.22" disallow="tram rail_urban rail rail_electric ship" oneway="0"/>
    <type id="highway.tertiary_link" priority="5" numLanes="1" speed="22.22" disallow="tram rail_urban rail rail_electric ship" oneway="0"/>
    <type id="highway.track" priority="1" numLanes="1" speed="5.56" disallow="tram rail_urban rail rail_electric ship" oneway="0"/>
    <type id="highway.trunk" priority="11" numLanes="2" speed="27.78" disallow="tram rail_urban rail rail_electric bicycle pedestrian ship" oneway="0"/>
    <type id="highway.trunk_link" priority="10" numLanes="1" speed="22.22" disallow="tram rail_urban rail rail_electric bicycle pedestrian ship" oneway="0"/>
    <type id="highway.unclassified" priority="5" numLanes="1" speed="13.89" disallow="tram rail_urban rail rail_electric ship" oneway="0"/>
    <type id="highway.unsurfaced" priority="1" numLanes="1" speed="8.33" disallow="tram rail_urban rail rail_electric ship" oneway="0"/>
    <type id="railway.light_rail" priority="15" numLanes="1" speed="27.78" allow="rail_urban" oneway="1"/>
    <type id="railway.preserved" priority="15" numLanes="1" speed="27.78" allow="rail" oneway="1"/>
    <type id="railway.rail" priority="15" numLanes="1" speed="83.33" allow="rail rail_electric" oneway="1"/>
    <type id="railway.subway" priority="15" numLanes="1" speed="27.78" allow="rail_urban" oneway="1"/>
    <type id="railway.tram" priority="15" numLanes="1" speed="13.89" allow="tram" oneway="1"/>

    <edge id=":1010258178_0" function="internal">
        <lane id=":1010258178_0_0" index="0" disallow="tram rail_urban rail rail_electric ship" speed="22.22" length="5.16" shape="5238.44,2088.95 5237.40,2088.00 5236.32,2087.64 5235.18,2087.88 5234.00,2088.72"/>
    </edge>
    <edge id=":1010258178_1" function="internal">
        <lane id=":1010258178_1_0" index="0" disallow="tram rail_urban rail rail_electric ship" speed="22.22" length="22.00" shape="5238.44,2088.95 5235.14,2085.42 5230.66,2081.20 5226.06,2077.09 5222.41,2073.90"/>
    </edge>
    <edge id=":1010258178_2" function="internal">
        <lane id=":1010258178_2_0" index="0" disallow="tram rail_urban rail rail_electric ship" speed="22.22" length="22.74" shape="5238.44,2088.95 5235.65,2084.86 5232.47,2079.29 5229.59,2073.55 5227.73,2068.96"/>
    </edge>
    <edge id=":1010258178_3" function="internal">
        <lane id=":1010258178_3_0" index="0" disallow="tram rail_urban rail rail_electric ship" speed="22.22" length="2.61" shape="5238.44,2088.95 5238.30,2087.47 5238.68,2086.63 5238.88,2086.59"/>
    </edge>
    <edge id=":1010258178_16" function="internal">
        <lane id=":1010258178_16_0" index="0" speed="22.22" length="2.21" shape="5238.88,2086.59 5239.58,2086.43 5241.00,2086.87"/>
    </edge>
    <edge id=":1010258178_4" function="internal">
        <lane id=":1010258178_4_0" index="0" disallow="tram rail_urban rail rail_electric ship" speed="22.22" length="22.18" shape="5230.68,2067.32 5232.48,2071.84 5235.22,2077.43 5238.27,2082.85 5241.00,2086.87"/>
    </edge>
    <edge id=":1010258178_5" function="internal">
        <lane id=":1010258178_5_0" index="0" disallow="tram rail_urban rail rail_electric ship" speed="22.22" length="11.01" shape="5230.68,2067.32 5233.11,2075.76 5233.57,2077.93"/>
    </edge>
    <edge id=":1010258178_6" function="internal">
        <lane id=":1010258178_6_0" index="0" disallow="tram rail_urban rail rail_electric ship" speed="22.22" length="8.21" shape="5230.68,2067.32 5232.38,2074.83 5232.27,2075.33"/>
    </edge>
    <edge id=":1010258178_7" function="internal">
        <lane id=":1010258178_7_0" index="0" disallow="tram rail_urban rail rail_electric ship" speed="22.22" length="2.76" shape="5230.68,2067.32 5230.56,2068.83 5230.03,2069.61 5229.73,2069.62"/>
    </edge>
    <edge id=":1010258178_17" function="internal">
        <lane id=":1010258178_17_0" index="0" speed="22.22" length="11.02" shape="5233.57,2077.93 5234.48,2082.14 5234.77,2086.46 5234.00,2088.72"/>
    </edge>
    <edge id=":1010258178_18" function="internal">
        <lane id=":1010258178_18_0" index="0" speed="22.22" length="13.72" shape="5232.27,2075.33 5231.57,2078.43 5228.25,2078.12 5222.41,2073.90"/>
    </edge>
    <edge id=":1010258178_19" function="internal">
        <lane id=":1010258178_19_0" index="0" speed="22.22" length="2.16" shape="5229.73,2069.62 5229.09,2069.65 5227.73,2068.96"/>
    </edge>
    <edge id=":1010258178_8" function="internal">
        <lane id=":1010258178_8_0" index="0" disallow="tram rail_urban rail rail_electric ship" speed="22.22" length="8.31" shape="5224.57,2071.41 5226.79,2073.02 5228.06,2073.15 5228.37,2071.79 5227.73,2068.96"/>
    </edge>
    <edge id=":1010258178_9" function="internal">
        <lane id=":1010258178_9_0" index="0" disallow="tram rail_urban rail rail_electric ship" speed="22.22" length="22.56" shape="5224.57,2071.41 5241.00,2086.87"/>
    </edge>
    <edge id=":1010258178_10" function="internal">
        <lane id=":1010258178_10_0" index="0" disallow="tram rail_urban rail rail_electric ship" speed="22.22" length="21.49" shape="5224.57,2071.41 5230.58,2077.21 5234.16,2082.02 5235.30,2085.86 5234.00,2088.72"/>
    </edge>
    <edge id=":1010258178_11" function="internal">
        <lane id=":1010258178_11_0" index="0" disallow="tram rail_urban rail rail_electric ship" speed="22.22" length="4.82" shape="5224.57,2071.41 5224.97,2072.85 5224.74,2073.74 5223.88,2074.09 5222.41,2073.90"/>
    </edge>
    <edge id=":1010258178_12" function="internal">
        <lane id=":1010258178_12_0" index="0" disallow="tram rail_urban rail rail_electric ship" speed="22.22" length="16.23" shape="5231.74,2086.32 5232.04,2084.70 5230.59,2082.10 5227.38,2078.49 5222.41,2073.90"/>
    </edge>
    <edge id=":1010258178_13" function="internal">
        <lane id=":1010258178_13_0" index="0" disallow="tram rail_urban rail rail_electric ship" speed="22.22" length="17.92" shape="5231.74,2086.32 5231.90,2084.84 5231.29,2081.46 5229.90,2076.16 5227.73,2068.96"/>
    </edge>
    <edge id=":1010258178_14" function="internal">
        <lane id=":1010258178_14_0" index="0" disallow="tram rail_urban rail rail_electric ship" speed="22.22" length="10.77" shape="5231.74,2086.32 5234.19,2084.59 5236.55,2084.10 5238.82,2084.86 5241.00,2086.87"/>
    </edge>
    <edge id=":1010258178_15" function="internal">
        <lane id=":1010258178_15_0" index="0" disallow="tram rail_urban rail rail_electric ship" speed="22.22" length="4.82" shape="5231.74,2086.32 5233.20,2086.07 5234.07,2086.39 5234.34,2087.27 5234.00,2088.72"/>
    </edge>
    <edge id=":1010258189_0" function="internal">
        <lane id=":1010258189_0_0" index="0" disallow="tram rail_urban rail rail_electric ship" speed="22.22" length="4.82" shape="5794.61,2843.67 5793.12,2843.75 5792.30,2843.34 5792.13,2842.43 5792.63,2841.03"/>
    </edge>
    <edge id=":1010258540_0" function="internal">
        <lane id=":1010258540_0_0" index="0" disallow="tram rail_urban rail rail_electric ship" speed="13.89" length="4.82" shape="5541.60,912.68 5540.71,911.49 5540.59,910.58 5541.25,909.94 5542.70,909.57"/>
    </edge>
    <edge id=":1010279833_0" function="internal">
        <lane id=":1010279833_0_0" index="0" disallow="tram rail_urban rail rail_electric ship" speed="13.89" length="8.22" shape="5128.64,1572.62 5127.80,1571.59 5126.27,1570.85 5124.05,1570.40 5121.13,1570.26"/>
    </edge>
    <edge id=":1010279833_1" function="internal">
        <lane id=":1010279833_1_0" index="0" disallow="tram rail_urban rail rail_electric ship" speed="13.89" length="10.94" shape="5128.64,1572.62 5127.36,1569.79 5126.21,1567.74 5124.89,1565.79 5123.12,1563.22"/>
    </edge>
    <edge id=":1010279833_2" function="internal">
        <lane id=":1010279833_2_0" index="0" disallow="tram rail_urban rail rail_electric ship" speed="13.89" length="2.22" shape="5128.64,1572.62 5128.93,1571.16 5129.40,1570.61"/>
    </edge>
    <edge id=":1010279833_9" function="internal">
        <lane id=":1010279833_9_0" index="0" speed="13.89" length="2.60" shape="5129.40,1570.61 5129.53,1570.46 5130.45,1570.53 5131.69,1571.35"/>
    </edge>
    <edge id=":1010279833_3" function="internal">
        <lane id=":1010279833_3_0" index="0" disallow="tram rail_urban rail rail_electric ship" speed="13.89" length="11.56" shape="5125.85,1561.37 5131.69,1571.35"/>
    </edge>
    <edge id=":1010279833_4" function="internal">
        <lane id=":1010279833_4_0" index="0" disallow="tram rail_urban rail rail_electric ship" speed="13.89" length="6.26" shape="5125.85,1561.37 5127.81,1565.26 5127.72,1567.17"/>
    </edge>
    <edge id=":1010279833_5" function="internal">
        <lane id=":1010279833_5_0" index="0" disallow="tram rail_urban rail rail_electric ship" speed="13.89" length="2.41" shape="5125.85,1561.37 5125.86,1562.86 5125.41,1563.66"/>
    </edge>
    <edge id=":1010279833_10" function="internal">
        <lane id=":1010279833_10_0" index="0" speed="13.89" length="8.00" shape="5127.72,1567.17 5127.68,1568.04 5125.45,1569.70 5121.13,1570.26"/>
    </edge>
    <edge id=":1010279833_11" function="internal">
        <lane id=":1010279833_11_0" index="0" speed="13.89" length="2.41" shape="5125.41,1563.66 5124.50,1563.78 5123.12,1563.22"/>
    </edge>
    <edge id=":1010279833_6" function="internal">
        <lane id=":1010279833_6_0" index="0" disallow="tram rail_urban rail rail_electric ship" speed="13.89" length="6.00" shape="5121.13,1566.96 5122.95,1566.72 5123.89,1566.02 5123.94,1564.85 5123.12,1563.22"/>
    </edge>
    <edge id=":1010279833_7" function="internal">
        <lane id=":1010279833_7_0" index="0" disallow="tram rail_urban rail rail_electric ship" speed="13.89" length="12.06" shape="5121.13,1566.96 5125.06,1567.23 5128.13,1568.06 5130.34,1569.43 5131.69,1571.35"/>
    </edge>
    <edge id=":1010279833_8" function="internal">
        <lane id=":1010279833_8_0" index="0" disallow="tram rail_urban rail rail_electric ship" speed="13.89" length="4.82" shape="5121.13,1566.96 5122.37,1567.78 5122.78,1568.61 5122.37,1569.43 5121.13,1570.26"/>
    </edge>
    <edge id=":1010279834_0" function="internal">
        <lane id=":1010279834_0_0" index="0" disallow="tram rail_urban rail rail_electric ship" speed="13.89" length="5.05" shape="5030.98,1223.01 5029.59,1222.96 5028.53,1223.38 5027.82,1224.26 5027.44,1225.60"/>
    </edge>
    <edge id=":1010279834_1" function="internal">
        <lane id=":1010279834_1_0" index="0" disallow="tram rail_urban rail rail_electric ship" speed="13.89" length="10.20" shape="5030.98,1223.01 5021.05,1220.69"/>
    </edge>
    <edge id=":1010279834_2" function="internal">
        <lane id=":1010279834_2_0" index="0" disallow="tram rail_urban rail rail_electric ship" speed="13.89" length="10.77" shape="5030.98,1223.01 5028.24,1222.09 5026.44,1220.48 5025.58,1218.17 5025.67,1215.18"/>
    </edge>
    <edge id=":1010279834_3" function="internal">
        <lane id=":1010279834_3_0" index="0" disallow="tram rail_urban rail rail_electric ship" speed="13.89" length="4.82" shape="5030.98,1223.01 5029.91,1221.98 5029.65,1221.10 5030.20,1220.36 5031.57,1219.76"/>
    </edge>
    <edge id=":1010279834_4" function="internal">
        <lane id=":1010279834_4_0" index="0" disallow="tram rail_urban rail rail_electric ship" speed="13.89" length="5.49" shape="5028.92,1215.72 5028.87,1217.27 5029.29,1218.46 5030.19,1219.29 5031.57,1219.76"/>
    </edge>
    <edge id=":1010279834_5" function="internal">
        <lane id=":1010279834_5_0" index="0" disallow="tram rail_urban rail rail_electric ship" speed="13.89" length="9.99" shape="5028.92,1215.72 5027.44,1225.60"/>
    </edge>
    <edge id=":1010279834_6" function="internal">
        <lane id=":1010279834_6_0" index="0" disallow="tram rail_urban rail rail_electric ship" speed="13.89" length="5.25" shape="5028.92,1215.72 5028.00,1218.62 5026.52,1220.25"/>
    </edge>
    <edge id=":1010279834_7" function="internal">
        <lane id=":1010279834_7_0" index="0" disallow="tram rail_urban rail rail_electric ship" speed="13.89" length="2.41" shape="5028.92,1215.72 5027.91,1216.80 5027.02,1217.07"/>
    </edge>
    <edge id=":1010279834_16" function="internal">
        <lane id=":1010279834_16_0" index="0" speed="13.89" length="5.67" shape="5026.52,1220.25 5026.38,1220.41 5024.06,1221.10 5021.05,1220.69"/>
    </edge>
    <edge id=":1010279834_17" function="internal">
        <lane id=":1010279834_17_0" index="0" speed="13.89" length="2.41" shape="5027.02,1217.07 5026.28,1216.53 5025.67,1215.18"/>
    </edge>
    <edge id=":1010279834_8" function="internal">
        <lane id=":1010279834_8_0" index="0" disallow="tram rail_urban rail rail_electric ship" speed="13.89" length="5.14" shape="5021.96,1217.52 5023.38,1217.71 5024.47,1217.39 5025.23,1216.54 5025.67,1215.18"/>
    </edge>
    <edge id=":1010279834_9" function="internal">
        <lane id=":1010279834_9_0" index="0" disallow="tram rail_urban rail rail_electric ship" speed="13.89" length="9.87" shape="5021.96,1217.52 5031.57,1219.76"/>
    </edge>
    <edge id=":1010279834_10" function="internal">
        <lane id=":1010279834_10_0" index="0" disallow="tram rail_urban rail rail_electric ship" speed="13.89" length="10.81" shape="5021.96,1217.52 5024.67,1218.70 5026.49,1220.44 5027.41,1222.74 5027.44,1225.60"/>
    </edge>
    <edge id=":1010279834_11" function="internal">
        <lane id=":1010279834_11_0" index="0" disallow="tram rail_urban rail rail_electric ship" speed="13.89" length="4.82" shape="5021.96,1217.52 5022.92,1218.65 5023.09,1219.56 5022.47,1220.24 5021.05,1220.69"/>
    </edge>
    <edge id=":1010279834_12" function="internal">
        <lane id=":1010279834_12_0" index="0" disallow="tram rail_urban rail rail_electric ship" speed="13.89" length="6.04" shape="5024.17,1225.16 5024.15,1223.59 5023.62,1222.32 5022.59,1221.35 5021.05,1220.69"/>
    </edge>
    <edge id=":1010279834_13" function="internal">
        <lane id=":1010279834_13_0" index="0" disallow="tram rail_urban rail rail_electric ship" speed="13.89" length="10.10" shape="5024.17,1225.16 5025.67,1215.18"/>
    </edge>
    <edge id=":1010279834_14" function="internal">
        <lane id=":1010279834_14_0" index="0" disallow="tram rail_urban rail rail_electric ship" speed="13.89" length="5.42" shape="5024.17,1225.16 5024.96,1222.36 5026.45,1220.53 5026.59,1220.47"/>
    </edge>
    <edge id=":1010279834_15" function="internal">
        <lane id=":1010279834_15_0" index="0" disallow="tram rail_urban rail rail_electric ship" speed="13.89" length="2.41" shape="5024.17,1225.16 5025.15,1224.04 5026.02,1223.74"/>
    </edge>
    <edge id=":1010279834_18" function="internal">
        <lane id=":1010279834_18_0" index="0" speed="13.89" length="5.13" shape="5026.59,1220.47 5028.66,1219.66 5031.57,1219.76"/>
    </edge>
    <edge id=":1010279834_19" function="internal">
        <lane id=":1010279834_19_0" index="0" speed="13.89" length="2.41" shape="5026.02,1223.74 5026.78,1224.26 5027.44,1225.60"/>
    </edge>
    <edge id=":1010279837_0" function="internal">
        <lane id=":1010279837_0_0" index="0" disallow="tram rail_urban rail rail_electric ship" speed="13.89" length="10.23" shape="5016.15,1315.22 5015.61,1311.64 5014.81,1310.37 5013.76,1311.43 5012.45,1314.81"/>
    </edge>
    <edge id=":1010279837_1" function="internal">
        <lane id=":1010279837_1_0" index="0" disallow="tram rail_urban rail rail_electric ship" speed="13.89" length="19.97" shape="5016.15,1315.22 5014.84,1295.29"/>
    </edge>
    <edge id=":1010279837_2" function="internal">
        <lane id=":1010279837_2_0" index="0" disallow="tram rail_urban rail rail_electric ship" speed="13.89" length="4.82" shape="5016.15,1315.22 5016.87,1313.91 5017.65,1313.43 5018.51,1313.77 5019.44,1314.93"/>
    </edge>
    <edge id=":1010279837_3" function="internal">
        <lane id=":1010279837_3_0" index="0" disallow="tram rail_urban rail rail_electric ship" speed="13.89" length="19.28" shape="5018.11,1295.72 5017.98,1300.12 5018.36,1305.32 5018.95,1310.52 5019.44,1314.93"/>
    </edge>
    <edge id=":1010279837_4" function="internal">
        <lane id=":1010279837_4_0" index="0" disallow="tram rail_urban rail rail_electric ship" speed="13.89" length="19.93" shape="5018.11,1295.72 5017.16,1300.13 5015.60,1305.34 5013.88,1310.52 5012.45,1314.81"/>
    </edge>
    <edge id=":1010279837_5" function="internal">
        <lane id=":1010279837_5_0" index="0" disallow="tram rail_urban rail rail_electric ship" speed="13.89" length="2.71" shape="5018.11,1295.72 5017.13,1296.84 5016.26,1297.14 5016.01,1296.97"/>
    </edge>
    <edge id=":1010279837_9" function="internal">
        <lane id=":1010279837_9_0" index="0" speed="13.89" length="2.11" shape="5016.01,1296.97 5015.50,1296.63 5014.84,1295.29"/>
    </edge>
    <edge id=":1010279837_6" function="internal">
        <lane id=":1010279837_6_0" index="0" disallow="tram rail_urban rail rail_electric ship" speed="13.89" length="19.34" shape="5009.30,1313.82 5014.84,1295.29"/>
    </edge>
    <edge id=":1010279837_7" function="internal">
        <lane id=":1010279837_7_0" index="0" disallow="tram rail_urban rail rail_electric ship" speed="13.89" length="12.52" shape="5009.30,1313.82 5012.88,1304.57 5014.71,1302.72"/>
    </edge>
    <edge id=":1010279837_8" function="internal">
        <lane id=":1010279837_8_0" index="0" disallow="tram rail_urban rail rail_electric ship" speed="13.89" length="2.41" shape="5009.30,1313.82 5010.46,1312.89 5011.37,1312.74"/>
    </edge>
    <edge id=":1010279837_10" function="internal">
        <lane id=":1010279837_10_0" index="0" speed="13.89" length="15.49" shape="5014.71,1302.72 5015.76,1301.67 5017.95,1305.12 5019.44,1314.93"/>
    </edge>
    <edge id=":1010279837_11" function="internal">
        <lane id=":1010279837_11_0" index="0" speed="13.89" length="2.41" shape="5011.37,1312.74 5012.04,1313.38 5012.45,1314.81"/>
    </edge>
    <edge id=":1738983099_0" function="internal">
        <lane id=":1738983099_0_0" index="0" allow="delivery bicycle pedestrian" speed="5.56" length="18.41" shape="2540.96,2379.39 2539.84,2375.29 2537.93,2370.76 2535.79,2366.30 2533.94,2362.42"/>
    </edge>
    <edge id=":1738983099_1" function="internal">
        <lane id=":1738983099_1_0" index="0" allow="delivery bicycle pedestrian" speed="5.56" length="19.10" shape="2540.96,2379.39 2540.60,2375.02 2540.52,2369.87 2540.58,2364.70 2540.63,2360.30"/>
    </edge>
    <edge id=":1738983099_2" function="internal">
        <lane id=":1738983099_2_0" index="0" allow="delivery bicycle pedestrian" speed="5.56" length="4.82" shape="2540.96,2379.39 2541.59,2378.04 2542.35,2377.51 2543.23,2377.80 2544.23,2378.90"/>
    </edge>
    <edge id=":1738983099_3" function="internal">
        <lane id=":1738983099_3_0" index="0" allow="delivery bicycle pedestrian" speed="5.56" length="18.61" shape="2543.93,2360.30 2544.23,2378.90"/>
    </edge>
    <edge id=":1738983099_4" function="internal">
        <lane id=":1738983099_4_0" index="0" allow="delivery bicycle pedestrian" speed="5.56" length="26.80" shape="2543.93,2360.30 2543.32,2369.71 2541.45,2373.21 2538.33,2370.78 2533.94,2362.42"/>
    </edge>
    <edge id=":1738983099_5" function="internal">
        <lane id=":1738983099_5_0" index="0" allow="delivery bicycle pedestrian" speed="5.56" length="4.82" shape="2543.93,2360.30 2543.11,2361.53 2542.28,2361.95 2541.46,2361.54 2540.63,2360.30"/>
    </edge>
    <edge id=":1738983099_6" function="internal">
        <lane id=":1738983099_6_0" index="0" allow="delivery bicycle pedestrian" speed="5.56" length="9.84" shape="2536.96,2361.08 2538.57,2364.15 2539.72,2365.04 2540.41,2363.76 2540.63,2360.30"/>
    </edge>
    <edge id=":1738983099_7" function="internal">
        <lane id=":1738983099_7_0" index="0" allow="delivery bicycle pedestrian" speed="5.56" length="19.25" shape="2536.96,2361.08 2544.23,2378.90"/>
    </edge>
    <edge id=":1738983099_8" function="internal">
        <lane id=":1738983099_8_0" index="0" allow="delivery bicycle pedestrian" speed="5.56" length="4.82" shape="2536.96,2361.08 2536.71,2362.55 2536.12,2363.26 2535.20,2363.21 2533.94,2362.42"/>
    </edge>
    <edge id=":1738983119_0" function="internal">
        <lane id=":1738983119_0_0" index="0" allow="delivery bicycle pedestrian" speed="5.56" length="5.42" shape="2486.26,2598.75 2485.26,2597.56 2484.20,2597.11 2483.09,2597.39 2481.92,2598.42"/>
    </edge>
    <edge id=":1738983119_1" function="internal">
        <lane id=":1738983119_1_0" index="0" allow="delivery bicycle pedestrian" speed="5.56" length="10.71" shape="2486.26,2598.75 2484.82,2595.85 2484.27,2593.23 2484.63,2590.88 2485.88,2588.82"/>
    </edge>
    <edge id=":1738983119_2" function="internal">
        <lane id=":1738983119_2_0" index="0" allow="delivery bicycle pedestrian" speed="5.56" length="4.82" shape="2486.26,2598.75 2486.31,2597.27 2486.79,2596.48 2487.71,2596.40 2489.06,2597.01"/>
    </edge>
    <edge id=":1738983119_3" function="internal">
        <lane id=":1738983119_3_0" index="0" allow="delivery bicycle pedestrian" speed="5.56" length="6.48" shape="2488.35,2591.00 2487.73,2592.13 2487.64,2593.51 2488.09,2595.14 2489.06,2597.01"/>
    </edge>
    <edge id=":1738983119_4" function="internal">
        <lane id=":1738983119_4_0" index="0" allow="delivery bicycle pedestrian" speed="5.56" length="9.83" shape="2488.35,2591.00 2481.92,2598.42"/>
    </edge>
    <edge id=":1738983119_5" function="internal">
        <lane id=":1738983119_5_0" index="0" allow="delivery bicycle pedestrian" speed="5.56" length="4.82" shape="2488.35,2591.00 2486.92,2591.38 2486.02,2591.14 2485.68,2590.29 2485.88,2588.82"/>
    </edge>
    <edge id=":1738983119_6" function="internal">
        <lane id=":1738983119_6_0" index="0" allow="delivery bicycle pedestrian" speed="5.56" length="9.87" shape="2479.41,2596.27 2485.88,2588.82"/>
    </edge>
    <edge id=":1738983119_7" function="internal">
        <lane id=":1738983119_7_0" index="0" allow="delivery bicycle pedestrian" speed="5.56" length="12.03" shape="2479.41,2596.27 2482.01,2593.99 2484.49,2593.35 2486.84,2594.36 2489.06,2597.01"/>
    </edge>
    <edge id=":1738983119_8" function="internal">
        <lane id=":1738983119_8_0" index="0" allow="delivery bicycle pedestrian" speed="5.56" length="4.82" shape="2479.41,2596.27 2480.84,2595.87 2481.74,2596.09 2482.10,2596.94 2481.92,2598.42"/>
    </edge>
    <edge id=":1738983153_0" function="internal">
        <lane id=":1738983153_0_0" index="0" allow="delivery bicycle pedestrian" speed="5.56" length="4.82" shape="3449.59,2664.63 3448.31,2665.38 3447.38,2665.39 3446.83,2664.65 3446.63,2663.18"/>
    </edge>
    <edge id=":1738983162_0" function="internal">
        <lane id=":1738983162_0_0" index="0" allow="delivery bicycle pedestrian" speed="5.56" length="4.82" shape="3332.15,2374.04 3330.96,2373.14 3330.60,2372.29 3331.06,2371.49 3332.34,2370.74"/>
    </edge>
    <edge id=":1738983165_0" function="internal">
        <lane id=":1738983165_0_0" index="0" allow="delivery bicycle pedestrian" speed="5.56" length="9.50" shape="3456.22,2572.33 3447.08,2569.77"/>
    </edge>
    <edge id=":1738983165_1" function="internal">
        <lane id=":1738983165_1_0" index="0" allow="delivery bicycle pedestrian" speed="5.56" length="10.32" shape="3456.22,2572.33 3453.64,2571.19 3452.03,2569.49 3451.42,2567.24 3451.79,2564.44"/>
    </edge>
    <edge id=":1738983165_2" function="internal">
        <lane id=":1738983165_2_0" index="0" allow="delivery bicycle pedestrian" speed="5.56" length="4.82" shape="3456.22,2572.33 3455.25,2571.20 3455.08,2570.29 3455.70,2569.61 3457.11,2569.15"/>
    </edge>
    <edge id=":1738983165_3" function="internal">
        <lane id=":1738983165_3_0" index="0" allow="delivery bicycle pedestrian" speed="5.56" length="5.00" shape="3454.96,2565.33 3454.78,2566.69 3455.08,2567.78 3455.86,2568.60 3457.11,2569.15"/>
    </edge>
    <edge id=":1738983165_4" function="internal">
        <lane id=":1738983165_4_0" index="0" allow="delivery bicycle pedestrian" speed="5.56" length="10.32" shape="3454.96,2565.33 3453.82,2567.92 3452.13,2569.52 3449.88,2570.14 3447.08,2569.77"/>
    </edge>
    <edge id=":1738983165_5" function="internal">
        <lane id=":1738983165_5_0" index="0" allow="delivery bicycle pedestrian" speed="5.56" length="4.82" shape="3454.96,2565.33 3453.84,2566.30 3452.93,2566.47 3452.25,2565.85 3451.79,2564.44"/>
    </edge>
    <edge id=":1738983165_6" function="internal">
        <lane id=":1738983165_6_0" index="0" allow="delivery bicycle pedestrian" speed="5.56" length="5.00" shape="3447.96,2566.59 3449.32,2566.77 3450.41,2566.47 3451.23,2565.69 3451.79,2564.44"/>
    </edge>
    <edge id=":1738983165_7" function="internal">
        <lane id=":1738983165_7_0" index="0" allow="delivery bicycle pedestrian" speed="5.56" length="9.50" shape="3447.96,2566.59 3457.11,2569.15"/>
    </edge>
    <edge id=":1738983165_8" function="internal">
        <lane id=":1738983165_8_0" index="0" allow="delivery bicycle pedestrian" speed="5.56" length="4.82" shape="3447.96,2566.59 3448.93,2567.72 3449.11,2568.62 3448.49,2569.31 3447.08,2569.77"/>
    </edge>
    <edge id=":1738983175_0" function="internal">
        <lane id=":1738983175_0_0" index="0" allow="delivery bicycle pedestrian" speed="5.56" length="9.30" shape="2452.27,2632.96 2446.59,2640.33"/>
    </edge>
    <edge id=":1738983175_1" function="internal">