<!-- Extra Traffic Flows -->

<flows>
    <!-- 07:00- -->
    <interval begin="25200" end="28799">
        <flow id="9-1_0700" from="95482882#10" number="3" />
        <flow id="10-1_0700" from="-174921907#0" number="4" />
        <flow id="11-1_0700" from="264568863#3" number="3" />
        <flow id="13-1_0700" from="-169800686#1" number="34" />
        <flow id="14-1_0700" from="-41234693#1" number="18" />
        <flow id="15-1_0700" from="-225867#0" number="18" />
        <flow id="23-1_0700" from="68756858#1" number="12" />
        <flow id="24-1_0700" from="179084412#1" number="12" />
        <flow id="35-1_0700" from="-56131478#1" number="5" />
        <flow id="71-1_0700" from="-225449#0" number="1" />
        <flow id="75-1_0700" from="43111059#3" number="1" />
        <flow id="78-1_0700" from="-95490986#1" number="1" />
        <flow id="108-1_0700" from="179084423#0" number="54" />
        <flow id="109-1_0700" from="179084421#1" number="59" />
        <flow id="110-1_0700" from="179084434#6" number="31" />
        <flow id="124-1_0700" from="96534727#4" number="17" />
        <flow id="125-1_0700" from="96534347#3" number="17" />
        <flow id="126-1_0700" from="-169516526#0" number="9" />
        <flow id="128-1_0700" from="-168088498#1" number="9" />
        <flow id="128-2_0700" from="-63682731#1" number="7" />
        <flow id="131-1_0700" from="-217018808#6" number="9" />
        <flow id="132-1_0700" from="-503685749#1" number="18" />
        <flow id="133-1_0700" from="-169516742#1" number="18" />
        <flow id="156-1_0700" from="169512347#0" number="33" />
        <flow id="156-2_0700" from="-175150528#1" number="32" />
        <flow id="157-1_0700" from="169512352#0" number="35" />
        <flow id="158-1_0700" from="75212986#2" number="75" />
        <flow id="162-1_0700" from="46874228#0" number="8" />
        <flow id="14-2_0700" from="41234692#3" number="18" />
        <flow id="15-2_0700" from="41720514#5" number="19" />
        <flow id="110-2_0700" from="61460562#3" number="32" />
        <flow id="126-2_0700" from="50887139#0" number="8" />
        <flow id="157-2_0700" from="-140550418#1" number="35" />
        <flow id="131-2_0700" from="217018808#4" number="9" />


    </interval>

    <!-- 08:00 -->
    <interval begin="28800" end="32399">
        <flow id="3-1_0800" from="95482882#5" number="15" />
        <flow id="4-1_0800" from="95484971#4" number="15" />
        <flow id="5-1_0800" from="-45802478#1" number="31" />
        <flow id="9-1_0800" from="95482882#10" number="18" />
        <flow id="10-1_0800" from="-174921907#0" number="18" />
        <flow id="11-1_0800" from="264568863#3" number="19" />
        <flow id="13-1_0800" from="-169800686#1" number="42" />
        <flow id="14-1_0800" from="-41234693#1" number="22" />
        <flow id="15-1_0800" from="-225867#0" number="23" />
        <flow id="26-1_0800" from="203464208#5" number="1" />
        <flow id="27-1_0800" from="-41234686#1" number="2" />
        <flow id="29-1_0800" from="179129050#1" number="2" />
        <flow id="108-1_0800" from="179084423#0" number="39" />
        <flow id="109-1_0800" from="179084421#1" number="40" />
        <flow id="110-1_0800" from="179084434#6" number="21" />
        <flow id="113-1_0800" from="520149462#0" number="10" />
        <flow id="134-1_0800" from="-169673054#8" number="10" />
        <flow id="135-1_0800" from="-95483239#0" number="11" />
        <flow id="136-1_0800" from="169673061#3" number="11" />
        <flow id="144-1_0800" from="206636944#9" number="21" />
        <flow id="145-1_0800" from="-226653#1" number="11" />
        <flow id="146-1_0800" from="-175150518#1" number="11" />
        <flow id="157-1_0800" from="169512352#0" number="25" />
        <flow id="158-1_0800" from="75212986#2" number="52" />
        <flow id="163-1_0800" from="179084431#7" number="2" />
        <flow id="164-1_0800" from="68756870#0" number="12" />
        <flow id="165-1_0800" from="-33111547#2" number="16" />
        <flow id="3-2_0800" from="-95482882#9" number="15" />
        <flow id="4-2_0800" from="-224708" number="15" />
        <flow id="14-2_0800" from="41234692#3" number="23" />
        <flow id="15-2_0800" from="41720514#5" number="24" />
        <flow id="26-2_0800" from="179129050#1" number="1" />
        <flow id="110-2_0800" from="61460562#3" number="21" />
        <flow id="134-2_0800" from="169673054#4" number="11" />
        <flow id="135-2_0800" from="44889593#8" number="11" />
        <flow id="136-2_0800" from="169674141#0" number="11" />
        <flow id="145-2_0800" from="-175150507#1" number="11" />
        <flow id="146-2_0800" from="169674147#4" number="11" />
        <flow id="157-2_0800" from="-140550418#1" number="26" />
        <flow id="163-2_0800" from="520145811#2" number="3" />
        <flow id="164-2_0800" from="32008467#2" number="14" />
        <flow id="156-3_0800" from="169512347#0" number="24" />
        <flow id="156-4_0800" from="-175150528#1" number="24" />

    </interval>

        <!-- 13:00 -->
    <interval begin="46800" end="50399">
        <flow id="3-1_1300" from="95482882#5" number="30" />
        <flow id="4-1_1300" from="95484971#4" number="32" />
        <flow id="5-1_1300" from="-45802478#1" number="67" />
        <flow id="9-1_1300" from="95482882#10" number="45" />
        <flow id="10-1_1300" from="-174921907#0" number="48" />
        <flow id="11-1_1300" from="264568863#3" number="53" />
        <flow id="13-1_1300" from="-169800686#1" number="37" />
        <flow id="14-1_1300" from="-41234693#1" number="19" />
        <flow id="15-1_1300" from="-225867#0" number="21" />
        <flow id="21-1_1300" from="-169489048#0" number="14" />
        <flow id="22-1_1300" from="-179084414" number="14" />
        <flow id="23-1_1300" from="68756858#1" number="7" />
        <flow id="24-1_1300" from="179084412#1" number="7" />
        <flow id="26-1_1300" from="203464208#5" number="10" />
        <flow id="27-1_1300" from="-41234686#1" number="59" />
        <flow id="29-1_1300" from="179129050#1" number="70" />
        <flow id="31-1_1300" from="175154939#1" number="91" />
        <flow id="35-1_1300" from="-56131478#1" number="119" />
        <flow id="36-1_1300" from="46678989#3" number="15" />
        <flow id="37-1_1300" from="-46875036#1" number="29" />
        <flow id="38-1_1300" from="-169674155#0" number="31" />
        <flow id="39-1_1300" from="175154941#1" number="31" />
        <flow id="40-1_1300" from="46872317#1" number="32" />
        <flow id="41-1_1300" from="-368888538#0" number="33" />
        <flow id="42-1_1300" from="-169673031#0" number="17" />
        <flow id="43-1_1300" from="-226940#1" number="35" />
        <flow id="44-1_1300" from="-169673055#0" number="19" />
        <flow id="45-1_1300" from="169673041#4" number="37" />
        <flow id="46-1_1300" from="169407113#9" number="19" />
        <flow id="67-1_1300" from="520217615#1" number="16" />
        <flow id="68-1_1300" from="-46679219#1" number="17" />
        <flow id="69-1_1300" from="-225344#1" number="16" />
        <flow id="70-1_1300" from="178150693#0" number="18" />
        <flow id="71-1_1300" from="-225449#0" number="17" />
        <flow id="72-1_1300" from="46698935#4" number="19" />
        <flow id="73-1_1300" from="45245579" number="9" />
        <flow id="74-1_1300" from="-226716#0" number="19" />
        <flow id="75-1_1300" from="43111059#3" number="10" />
        <flow id="76-1_1300" from="169674148#1" number="20" />
        <flow id="77-1_1300" from="169407113#14" number="10" />
        <flow id="78-1_1300" from="-95490986#1" number="21" />
        <flow id="93-1_1300" from="498810731#0" number="5" />
        <flow id="94-1_1300" from="-68756871" number="3" />
        <flow id="95-1_1300" from="46679219#6" number="3" />
        <flow id="96-1_1300" from="-179129032#1" number="5" />
        <flow id="97-1_1300" from="-225168#0" number="4" />
        <flow id="98-1_1300" from="-225404#1" number="3" />
        <flow id="99-1_1300" from="169478204#0" number="6" />
        <flow id="100-1_1300" from="169407117#0" number="5" />
        <flow id="101-1_1300" from="-225574" number="5" />
        <flow id="102-1_1300" from="--221621" number="3" />
        <flow id="103-1_1300" from="-46698934#1" number="5" />
        <flow id="104-1_1300" from="178151734#1" number="5" />
        <flow id="105-1_1300" from="187037492#2" number="5" />
        <flow id="106-1_1300" from="43111059#8" number="6" />
        <flow id="107-1_1300" from="79627543#1" number="5" />
        <flow id="108-1_1300" from="179084423#0" number="65" />
        <flow id="109-1_1300" from="179084421#1" number="69" />
        <flow id="110-1_1300" from="179084434#6" number="38" />
        <flow id="113-1_1300" from="520149462#0" number="64" />
        <flow id="114-1_1300" from="68756870#0" number="34" />
        <flow id="115-1_1300" from="-33111547#2" number="70" />
        <flow id="134-1_1300" from="-169673054#8" number="28" />
        <flow id="135-1_1300" from="-95483239#0" number="31" />
        <flow id="136-1_1300" from="169673061#3" number="34" />
        <flow id="157-1_1300" from="169512352#0" number="21" />
        <flow id="158-1_1300" from="75212986#2" number="42" />
        <flow id="160-1_1300" from="149683840#8" number="13" />
        <flow id="162-1_1300" from="46874228#0" number="13" />
        <flow id="163-1_1300" from="179084431#7" number="42" />
        <flow id="3-2_1300" from="-95482882#9" number="30" />
        <flow id="4-2_1300" from="-224708" number="31" />
        <flow id="14-2_1300" from="41234692#3" number="19" />
        <flow id="15-2_1300" from="41720514#5" number="20" />
        <flow id="26-2_1300" from="179129050#1" number="9" />
        <flow id="36-2_1300" from="-520217615#1" number="14" />
        <flow id="42-2_1300" from="70417525#0" number="17" />
        <flow id="44-2_1300" from="-43111059#1" number="18" />
        <flow id="46-2_1300" from="-169407113#12" number="19" />
        <flow id="73-2_1300" from="-169674143#1" number="9" />
        <flow id="75-2_1300" from="-43111059#4" number="10" />
        <flow id="77-2_1300" from="-169407114#1" number="10" />
        <flow id="94-2_1300" from="66333895#13" number="2" />        
        <flow id="95-2_1300" from="-46679220#0" number="2" />
        <flow id="98-2_1300" from="46875704" number="2" />
        <flow id="102-2_1300" from="258878955" number="2" />
        <flow id="110-2_1300" from="61460562#3" number="37" />
        <flow id="114-2_1300" from="32008467#2" number="34" />
        <flow id="134-2_1300" from="169673054#4" number="27" />
        <flow id="135-2_1300" from="44889593#8" number="30" />
        <flow id="136-2_1300" from="169674141#0" number="33" />
        <flow id="157-2_1300" from="-140550418#1" number="20" />
        <flow id="163-2_1300" from="520145811#2" number="42" />
        <flow id="156-3_1300" from="169512347#0" number="20" />
        <flow id="156-4_1300" from="-175150528#1" number="19" />


    </interval>

    <!-- 14:00 -->
    <interval begin="50400" end="53999">
        <flow id="3-1_1400" from="95482882#5" number="12" />
        <flow id="4-1_1400" from="95484971#4" number="12" />
        <flow id="5-1_1400" from="-45802478#1" number="23" />
        <flow id="9-1_1400" from="95482882#10" number="40" />
        <flow id="10-1_1400" from="-174921907#0" number="43" />
        <flow id="11-1_1400" from="264568863#3" number="46" />
        <flow id="13-1_1400" from="-169800686#1" number="71" />
        <flow id="14-1_1400" from="-41234693#1" number="39" />
        <flow id="15-1_1400" from="-225867#0" number="44" />
        <flow id="23-1_1400" from="68756858#1" number="17" />
        <flow id="24-1_1400" from="179084412#1" number="17" />
        <flow id="26-1_1400" from="203464208#5" number="7" />
        <flow id="27-1_1400" from="-41234686#1" number="53" />
        <flow id="29-1_1400" from="179129050#1" number="60" />
        <flow id="31-1_1400" from="175154939#1" number="128" />
        <flow id="32-1_1400" from="68756864#2" number="1" />
        <flow id="35-1_1400" from="-56131478#1" number="174" />
        <flow id="36-1_1400" from="46678989#3" number="15" />
        <flow id="37-1_1400" from="-46875036#1" number="31" />
        <flow id="38-1_1400" from="-169674155#0" number="32" />
        <flow id="39-1_1400" from="175154941#1" number="33" />
        <flow id="40-1_1400" from="46872317#1" number="33" />
        <flow id="41-1_1400" from="-368888538#0" number="35" />
        <flow id="42-1_1400" from="-169673031#0" number="18" />
        <flow id="43-1_1400" from="-226940#1" number="37" />
        <flow id="44-1_1400" from="-169673055#0" number="19" />
        <flow id="45-1_1400" from="169673041#4" number="38" />
        <flow id="46-1_1400" from="169407113#9" number="20" />
        <flow id="67-1_1400" from="520217615#1" number="9" />
        <flow id="68-1_1400" from="-46679219#1" number="9" />
        <flow id="69-1_1400" from="-225344#1" number="10" />
        <flow id="70-1_1400" from="178150693#0" number="9" />
        <flow id="71-1_1400" from="-225449#0" number="10" />
        <flow id="72-1_1400" from="46698935#4" number="10" />
        <flow id="73-1_1400" from="45245579" number="5" />
        <flow id="74-1_1400" from="-226716#0" number="10" />
        <flow id="75-1_1400" from="43111059#3" number="5" />
        <flow id="76-1_1400" from="169674148#1" number="10" />
        <flow id="77-1_1400" from="169407113#14" number="5" />
        <flow id="78-1_1400" from="-95490986#1" number="11" />
        <flow id="93-1_1400" from="498810731#0" number="6" />
        <flow id="108-1_1400" from="179084423#0" number="71" />
        <flow id="109-1_1400" from="179084421#1" number="77" />
        <flow id="110-1_1400" from="179084434#6" number="42" />
        <flow id="113-1_1400" from="520149462#0" number="114" />
        <flow id="134-1_1400" from="-169673054#8" number="22" />
        <flow id="135-1_1400" from="-95483239#0" number="29" />
        <flow id="136-1_1400" from="169673061#3" number="25" />
        <flow id="142-1_1400" from="-179209763#1" number="100" />
        <flow id="143-1_1400" from="169674140#6" number="108" />
        <flow id="144-1_1400" from="206636944#9" number="53" />
        <flow id="145-1_1400" from="-226653#1" number="28" />
        <flow id="146-1_1400" from="-175150518#1" number="29" />
        <flow id="157-1_1400" from="169512352#0" number="29" />
        <flow id="158-1_1400" from="75212986#2" number="60" />
        <flow id="160-1_1400" from="149683840#8" number="11" />
        <flow id="163-1_1400" from="179084431#7" number="35" />
        <flow id="164-1_1400" from="-68756871" number="4" />
        <flow id="165-1_1400" from="46679219#6" number="4" />
        <flow id="166-1_1400" from="-179129032#1" number="7" />
        <flow id="167-1_1400" from="-225168#0" number="6" />
        <flow id="168-1_1400" from="-225404#1" number="4" />
        <flow id="169-1_1400" from="169478204#0" number="7" />
        <flow id="170-1_1400" from="169407117#0" number="7" />
        <flow id="171-1_1400" from="-225574" number="8" />
        <flow id="172-1_1400" from="--221621" number="4" />
        <flow id="173-1_1400" from="-46698934#1" number="8" />
        <flow id="174-1_1400" from="178151734#1" number="7" />
        <flow id="175-1_1400" from="187037492#2" number="7" />
        <flow id="176-1_1400" from="43111059#8" number="8" />
        <flow id="177-1_1400" from="79627543#1" number="7" />
        <flow id="178-1_1400" from="68756870#0" number="109" />
        <flow id="179-1_1400" from="-33111547#2" number="237" />
        <flow id="3-2_1400" from="-95482882#9" number="11" />
        <flow id="4-2_1400" from="-224708" number="11" />
        <flow id="14-2_1400" from="41234692#3" number="39" />
        <flow id="15-2_1400" from="41720514#5" number="44" />
        <flow id="26-2_1400" from="179129050#1" number="7" />
        <flow id="36-2_1400" from="-520217615#1" number="15" />
        <flow id="42-2_1400" from="70417525#0" number="17" />
        <flow id="44-2_1400" from="-43111059#1" number="19" />
        <flow id="46-2_1400" from="-169407113#12" number="20" />
        <flow id="73-2_1400" from="-169674143#1" number="5" />
        <flow id="75-2_1400" from="-43111059#4" number="5" />
        <flow id="77-2_1400" from="-169407114#1" number="5" />
        <flow id="110-2_1400" from="61460562#3" number="41" />
        <flow id="134-2_1400" from="169673054#4" number="21" />
        <flow id="135-2_1400" from="44889593#8" number="28" />
        <flow id="136-2_1400" from="169674141#0" number="25" />
        <flow id="145-2_1400" from="-175150507#1" number="27" />
        <flow id="146-2_1400" from="169674147#4" number="28" />
        <flow id="157-2_1400" from="-140550418#1" number="29" />
        <flow id="163-2_1400" from="520145811#2" number="34" />
        <flow id="164-2_1400" from="66333895#13" number="2" />
        <flow id="165-2_1400" from="-46679220#0" number="4" />
        <flow id="168-2_1400" from="46875704" number="4" />
        <flow id="172-2_1400" from="258878955" number="3" />
        <flow id="178-2_1400" from="32008467#2" number="108" />
        <flow id="156-3_1400" from="169512347#0" number="28" />
        <flow id="156-4_1400" from="-175150528#1" number="28" />

    </interval>

</flows>
