<?xml version="1.0" encoding="UTF-8"?>

<!-- generated on 01/24/17 17:32:38 by SUMO duarouter Version 0.27.1
<?xml version="1.0" encoding="UTF-8"?>

<configuration xmlns:xsi="http://www.w3.org/2001/XMLSchema-instance" xsi:noNamespaceSchemaLocation="http://sumo.dlr.de/xsd/duarouterConfiguration.xsd">

    <input>
        <net-file value="sim.net.xml"/>
        <flow-files value="sim.flw.xml"/>
    </input>

    <output>
        <output-file value="sim.rou.xml"/>
    </output>

</configuration>
-->

<routes xmlns:xsi="http://www.w3.org/2001/XMLSchema-instance" xsi:noNamespaceSchemaLocation="http://sumo.dlr.de/xsd/routes_file.xsd">
    <vehicle id="flow01.0" depart="0.00">
        <route edges="res1 p1en"/>
    </vehicle>
    <vehicle id="flow02.0" depart="0.00">
        <route edges="res2 -gneE44 -gneE43 -gneE39 gneE38 p1en"/>
    </vehicle>
    <vehicle id="flow03.0" depart="0.00">
        <route edges="res3 -gneE41 -gneE40 gneE43 p2en"/>
    </vehicle>
    <vehicle id="flow04.0" depart="0.00">
        <route edges="res1 -gneE38 gneE39 gneE43 p2en"/>
    </vehicle>
    <vehicle id="flow05.0" depart="0.00">
        <route edges="res2 -gneE44 p2en"/>
    </vehicle>
    <vehicle id="flow06.0" depart="0.00">
        <route edges="res3 -gneE41 p3en"/>
    </vehicle>
    <vehicle id="flow07.0" depart="0.00">
        <route edges="res1 -gneE38 gneE39 gneE40 p3en"/>
    </vehicle>
    <vehicle id="flow08.0" depart="0.00">
        <route edges="res2 -gneE44 -gneE43 gneE40 p3en"/>
    </vehicle>
    <vehicle id="flow09.0" depart="0.00">
        <route edges="res3 -gneE41 -gneE40 -gneE39 gneE38 p1en"/>
    </vehicle>
    <vehicle id="flow12.0" depart="0.00">
        <route edges="res1 -gneE38 gneE39 gneE43 gneE44 des2"/>
    </vehicle>
    <vehicle id="flow13.0" depart="0.00">
        <route edges="res1 -gneE38 gneE39 gneE40 gneE41 des3"/>
    </vehicle>
    <vehicle id="flow21.0" depart="0.00">
        <route edges="res2 -gneE44 -gneE43 -gneE39 gneE38 des1"/>
    </vehicle>
    <vehicle id="flow23.0" depart="0.00">
        <route edges="res2 -gneE44 -gneE43 gneE40 gneE41 des3"/>
    </vehicle>
    <vehicle id="flow31.0" depart="0.00">
        <route edges="res1 -gneE38 gneE39 gneE40 gneE41 des3"/>
    </vehicle>
    <vehicle id="flow32.0" depart="0.00">
        <route edges="res2 -gneE44 -gneE43 gneE40 gneE41 des3"/>
    </vehicle>
    <vehicle id="flow12.1" depart="30.00">
        <route edges="res1 -gneE38 gneE39 gneE43 gneE44 des2"/>
    </vehicle>
    <vehicle id="flow21.1" depart="40.00">
        <route edges="res2 -gneE44 -gneE43 -gneE39 gneE38 des1"/>
    </vehicle>
    <vehicle id="flow31.1" depart="40.00">
        <route edges="res1 -gneE38 gneE39 gneE40 gneE41 des3"/>
    </vehicle>
    <vehicle id="flow12.2" depart="60.00">
        <route edges="res1 -gneE38 gneE39 gneE43 gneE44 des2"/>
    </vehicle>
    <vehicle id="flow32.1" depart="60.00">
        <route edges="res2 -gneE44 -gneE43 gneE40 gneE41 des3"/>
    </vehicle>
    <vehicle id="flow01.1" depart="72.00">
        <route edges="res1 p1en"/>
    </vehicle>
    <vehicle id="flow05.1" depart="72.00">
        <route edges="res2 -gneE44 p2en"/>
    </vehicle>
    <vehicle id="flow13.1" depart="80.00">
        <route edges="res1 -gneE38 gneE39 gneE40 gneE41 des3"/>
    </vehicle>
    <vehicle id="flow21.2" depart="80.00">
        <route edges="res2 -gneE44 -gneE43 -gneE39 gneE38 des1"/>
    </vehicle>
    <vehicle id="flow31.2" depart="80.00">
        <route edges="res1 -gneE38 gneE39 gneE40 gneE41 des3"/>
    </vehicle>
    <vehicle id="flow02.1" depart="90.00">
        <route edges="res2 -gneE44 -gneE43 -gneE39 gneE38 p1en"/>
    </vehicle>
    <vehicle id="flow04.1" depart="90.00">
        <route edges="res1 -gneE38 gneE39 gneE43 p2en"/>
    </vehicle>
    <vehicle id="flow12.3" depart="90.00">
        <route edges="res1 -gneE38 gneE39 gneE43 gneE44 des2"/>
    </vehicle>
    <vehicle id="flow03.1" depart="120.00">
        <route edges="res3 -gneE41 -gneE40 gneE43 p2en"/>
    </vehicle>
    <vehicle id="flow06.1" depart="120.00">
        <route edges="res3 -gneE41 p3en"/>
    </vehicle>
    <vehicle id="flow12.4" depart="120.00">
        <route edges="res1 -gneE38 gneE39 gneE43 gneE44 des2"/>
    </vehicle>
    <vehicle id="flow21.3" depart="120.00">
        <route edges="res2 -gneE44 -gneE43 -gneE39 gneE38 des1"/>
    </vehicle>
    <vehicle id="flow23.1" depart="120.00">
        <route edges="res2 -gneE44 -gneE43 gneE40 gneE41 des3"/>
    </vehicle>
    <vehicle id="flow31.3" depart="120.00">
        <route edges="res1 -gneE38 gneE39 gneE40 gneE41 des3"/>
    </vehicle>
    <vehicle id="flow32.2" depart="120.00">
        <route edges="res2 -gneE44 -gneE43 gneE40 gneE41 des3"/>
    </vehicle>
    <vehicle id="flow01.2" depart="144.00">
        <route edges="res1 p1en"/>
    </vehicle>
    <vehicle id="flow05.2" depart="144.00">
        <route edges="res2 -gneE44 p2en"/>
    </vehicle>
    <vehicle id="flow12.5" depart="150.00">
        <route edges="res1 -gneE38 gneE39 gneE43 gneE44 des2"/>
    </vehicle>
    <vehicle id="flow13.2" depart="160.00">
        <route edges="res1 -gneE38 gneE39 gneE40 gneE41 des3"/>
    </vehicle>
    <vehicle id="flow21.4" depart="160.00">
        <route edges="res2 -gneE44 -gneE43 -gneE39 gneE38 des1"/>
    </vehicle>
    <vehicle id="flow31.4" depart="160.00">
        <route edges="res1 -gneE38 gneE39 gneE40 gneE41 des3"/>
    </vehicle>
    <vehicle id="flow02.2" depart="180.00">
        <route edges="res2 -gneE44 -gneE43 -gneE39 gneE38 p1en"/>
    </vehicle>
    <vehicle id="flow04.2" depart="180.00">
        <route edges="res1 -gneE38 gneE39 gneE43 p2en"/>
    </vehicle>
    <vehicle id="flow07.1" depart="180.00">
        <route edges="res1 -gneE38 gneE39 gneE40 p3en"/>
    </vehicle>
    <vehicle id="flow08.1" depart="180.00">
        <route edges="res2 -gneE44 -gneE43 gneE40 p3en"/>
    </vehicle>
    <vehicle id="flow09.1" depart="180.00">
        <route edges="res3 -gneE41 -gneE40 -gneE39 gneE38 p1en"/>
    </vehicle>
    <vehicle id="flow12.6" depart="180.00">
        <route edges="res1 -gneE38 gneE39 gneE43 gneE44 des2"/>
    </vehicle>
    <vehicle id="flow32.3" depart="180.00">
        <route edges="res2 -gneE44 -gneE43 gneE40 gneE41 des3"/>
    </vehicle>
    <vehicle id="flow21.5" depart="200.00">
        <route edges="res2 -gneE44 -gneE43 -gneE39 gneE38 des1"/>
    </vehicle>
    <vehicle id="flow31.5" depart="200.00">
        <route edges="res1 -gneE38 gneE39 gneE40 gneE41 des3"/>
    </vehicle>
    <vehicle id="flow12.7" depart="210.00">
        <route edges="res1 -gneE38 gneE39 gneE43 gneE44 des2"/>
    </vehicle>
    <vehicle id="flow01.3" depart="216.00">
        <route edges="res1 p1en"/>
    </vehicle>
    <vehicle id="flow05.3" depart="216.00">
        <route edges="res2 -gneE44 p2en"/>
    </vehicle>
    <vehicle id="flow03.2" depart="240.00">
        <route edges="res3 -gneE41 -gneE40 gneE43 p2en"/>
    </vehicle>
    <vehicle id="flow06.2" depart="240.00">
        <route edges="res3 -gneE41 p3en"/>
    </vehicle>
    <vehicle id="flow12.8" depart="240.00">
        <route edges="res1 -gneE38 gneE39 gneE43 gneE44 des2"/>
    </vehicle>
    <vehicle id="flow13.3" depart="240.00">
        <route edges="res1 -gneE38 gneE39 gneE40 gneE41 des3"/>
    </vehicle>
    <vehicle id="flow21.6" depart="240.00">
        <route edges="res2 -gneE44 -gneE43 -gneE39 gneE38 des1"/>
    </vehicle>
    <vehicle id="flow23.2" depart="240.00">
        <route edges="res2 -gneE44 -gneE43 gneE40 gneE41 des3"/>
    </vehicle>
    <vehicle id="flow31.6" depart="240.00">
        <route edges="res1 -gneE38 gneE39 gneE40 gneE41 des3"/>
    </vehicle>
    <vehicle id="flow32.4" depart="240.00">
        <route edges="res2 -gneE44 -gneE43 gneE40 gneE41 des3"/>
    </vehicle>
    <vehicle id="flow02.3" depart="270.00">
        <route edges="res2 -gneE44 -gneE43 -gneE39 gneE38 p1en"/>
    </vehicle>
    <vehicle id="flow04.3" depart="270.00">
        <route edges="res1 -gneE38 gneE39 gneE43 p2en"/>
    </vehicle>
    <vehicle id="flow12.9" depart="270.00">
        <route edges="res1 -gneE38 gneE39 gneE43 gneE44 des2"/>
    </vehicle>
    <vehicle id="flow21.7" depart="280.00">
        <route edges="res2 -gneE44 -gneE43 -gneE39 gneE38 des1"/>
    </vehicle>
    <vehicle id="flow31.7" depart="280.00">
        <route edges="res1 -gneE38 gneE39 gneE40 gneE41 des3"/>
    </vehicle>
    <vehicle id="flow01.4" depart="288.00">
        <route edges="res1 p1en"/>
    </vehicle>
    <vehicle id="flow05.4" depart="288.00">
        <route edges="res2 -gneE44 p2en"/>
    </vehicle>
    <vehicle id="flow12.10" depart="300.00">
        <route edges="res1 -gneE38 gneE39 gneE43 gneE44 des2"/>
    </vehicle>
    <vehicle id="flow32.5" depart="300.00">
        <route edges="res2 -gneE44 -gneE43 gneE40 gneE41 des3"/>
    </vehicle>
    <vehicle id="flow13.4" depart="320.00">
        <route edges="res1 -gneE38 gneE39 gneE40 gneE41 des3"/>
    </vehicle>
    <vehicle id="flow21.8" depart="320.00">
        <route edges="res2 -gneE44 -gneE43 -gneE39 gneE38 des1"/>
    </vehicle>
    <vehicle id="flow31.8" depart="320.00">
        <route edges="res1 -gneE38 gneE39 gneE40 gneE41 des3"/>
    </vehicle>
    <vehicle id="flow12.11" depart="330.00">
        <route edges="res1 -gneE38 gneE39 gneE43 gneE44 des2"/>
    </vehicle>
    <vehicle id="flow01.5" depart="360.00">
        <route edges="res1 p1en"/>
    </vehicle>
    <vehicle id="flow02.4" depart="360.00">
        <route edges="res2 -gneE44 -gneE43 -gneE39 gneE38 p1en"/>
    </vehicle>
    <vehicle id="flow03.3" depart="360.00">
        <route edges="res3 -gneE41 -gneE40 gneE43 p2en"/>
    </vehicle>
    <vehicle id="flow04.4" depart="360.00">
        <route edges="res1 -gneE38 gneE39 gneE43 p2en"/>
    </vehicle>
    <vehicle id="flow05.5" depart="360.00">
        <route edges="res2 -gneE44 p2en"/>
    </vehicle>
    <vehicle id="flow06.3" depart="360.00">
        <route edges="res3 -gneE41 p3en"/>
    </vehicle>
    <vehicle id="flow07.2" depart="360.00">
        <route edges="res1 -gneE38 gneE39 gneE40 p3en"/>
    </vehicle>
    <vehicle id="flow08.2" depart="360.00">
        <route edges="res2 -gneE44 -gneE43 gneE40 p3en"/>
    </vehicle>
    <vehicle id="flow09.2" depart="360.00">
        <route edges="res3 -gneE41 -gneE40 -gneE39 gneE38 p1en"/>
    </vehicle>
    <vehicle id="flow12.12" depart="360.00">
        <route edges="res1 -gneE38 gneE39 gneE43 gneE44 des2"/>
    </vehicle>
    <vehicle id="flow21.9" depart="360.00">
        <route edges="res2 -gneE44 -gneE43 -gneE39 gneE38 des1"/>
    </vehicle>
    <vehicle id="flow23.3" depart="360.00">
        <route edges="res2 -gneE44 -gneE43 gneE40 gneE41 des3"/>
    </vehicle>
    <vehicle id="flow31.9" depart="360.00">
        <route edges="res1 -gneE38 gneE39 gneE40 gneE41 des3"/>
    </vehicle>
    <vehicle id="flow32.6" depart="360.00">
        <route edges="res2 -gneE44 -gneE43 gneE40 gneE41 des3"/>
    </vehicle>
    <vehicle id="flow12.13" depart="390.00">
        <route edges="res1 -gneE38 gneE39 gneE43 gneE44 des2"/>
    </vehicle>
    <vehicle id="flow13.5" depart="400.00">
        <route edges="res1 -gneE38 gneE39 gneE40 gneE41 des3"/>
    </vehicle>
    <vehicle id="flow21.10" depart="400.00">
        <route edges="res2 -gneE44 -gneE43 -gneE39 gneE38 des1"/>
    </vehicle>
    <vehicle id="flow31.10" depart="400.00">
        <route edges="res1 -gneE38 gneE39 gneE40 gneE41 des3"/>
    </vehicle>
    <vehicle id="flow12.14" depart="420.00">
        <route edges="res1 -gneE38 gneE39 gneE43 gneE44 des2"/>
    </vehicle>
    <vehicle id="flow32.7" depart="420.00">
        <route edges="res2 -gneE44 -gneE43 gneE40 gneE41 des3"/>
    </vehicle>
    <vehicle id="flow01.6" depart="432.00">
        <route edges="res1 p1en"/>
    </vehicle>
    <vehicle id="flow05.6" depart="432.00">
        <route edges="res2 -gneE44 p2en"/>
    </vehicle>
    <vehicle id="flow21.11" depart="440.00">
        <route edges="res2 -gneE44 -gneE43 -gneE39 gneE38 des1"/>
    </vehicle>
    <vehicle id="flow31.11" depart="440.00">
        <route edges="res1 -gneE38 gneE39 gneE40 gneE41 des3"/>
    </vehicle>
    <vehicle id="flow02.5" depart="450.00">
        <route edges="res2 -gneE44 -gneE43 -gneE39 gneE38 p1en"/>
    </vehicle>
    <vehicle id="flow04.5" depart="450.00">
        <route edges="res1 -gneE38 gneE39 gneE43 p2en"/>
    </vehicle>
    <vehicle id="flow12.15" depart="450.00">
        <route edges="res1 -gneE38 gneE39 gneE43 gneE44 des2"/>
    </vehicle>
    <vehicle id="flow03.4" depart="480.00">
        <route edges="res3 -gneE41 -gneE40 gneE43 p2en"/>
    </vehicle>
    <vehicle id="flow06.4" depart="480.00">
        <route edges="res3 -gneE41 p3en"/>
    </vehicle>
    <vehicle id="flow12.16" depart="480.00">
        <route edges="res1 -gneE38 gneE39 gneE43 gneE44 des2"/>
    </vehicle>
    <vehicle id="flow13.6" depart="480.00">
        <route edges="res1 -gneE38 gneE39 gneE40 gneE41 des3"/>
    </vehicle>
    <vehicle id="flow21.12" depart="480.00">
        <route edges="res2 -gneE44 -gneE43 -gneE39 gneE38 des1"/>
    </vehicle>
    <vehicle id="flow23.4" depart="480.00">
        <route edges="res2 -gneE44 -gneE43 gneE40 gneE41 des3"/>
    </vehicle>
    <vehicle id="flow31.12" depart="480.00">
        <route edges="res1 -gneE38 gneE39 gneE40 gneE41 des3"/>
    </vehicle>
    <vehicle id="flow32.8" depart="480.00">
        <route edges="res2 -gneE44 -gneE43 gneE40 gneE41 des3"/>
    </vehicle>
    <vehicle id="flow01.7" depart="504.00">
        <route edges="res1 p1en"/>
    </vehicle>
    <vehicle id="flow05.7" depart="504.00">
        <route edges="res2 -gneE44 p2en"/>
    </vehicle>
    <vehicle id="flow12.17" depart="510.00">
        <route edges="res1 -gneE38 gneE39 gneE43 gneE44 des2"/>
    </vehicle>
    <vehicle id="flow21.13" depart="520.00">
        <route edges="res2 -gneE44 -gneE43 -gneE39 gneE38 des1"/>
    </vehicle>
    <vehicle id="flow31.13" depart="520.00">
        <route edges="res1 -gneE38 gneE39 gneE40 gneE41 des3"/>
    </vehicle>
    <vehicle id="flow02.6" depart="540.00">
        <route edges="res2 -gneE44 -gneE43 -gneE39 gneE38 p1en"/>
    </vehicle>
    <vehicle id="flow04.6" depart="540.00">
        <route edges="res1 -gneE38 gneE39 gneE43 p2en"/>
    </vehicle>
    <vehicle id="flow07.3" depart="540.00">
        <route edges="res1 -gneE38 gneE39 gneE40 p3en"/>
    </vehicle>
    <vehicle id="flow08.3" depart="540.00">
        <route edges="res2 -gneE44 -gneE43 gneE40 p3en"/>
    </vehicle>
    <vehicle id="flow09.3" depart="540.00">
        <route edges="res3 -gneE41 -gneE40 -gneE39 gneE38 p1en"/>
    </vehicle>
    <vehicle id="flow12.18" depart="540.00">
        <route edges="res1 -gneE38 gneE39 gneE43 gneE44 des2"/>
    </vehicle>
    <vehicle id="flow32.9" depart="540.00">
        <route edges="res2 -gneE44 -gneE43 gneE40 gneE41 des3"/>
    </vehicle>
    <vehicle id="flow13.7" depart="560.00">
        <route edges="res1 -gneE38 gneE39 gneE40 gneE41 des3"/>
    </vehicle>
    <vehicle id="flow21.14" depart="560.00">
        <route edges="res2 -gneE44 -gneE43 -gneE39 gneE38 des1"/>
    </vehicle>
    <vehicle id="flow31.14" depart="560.00">
        <route edges="res1 -gneE38 gneE39 gneE40 gneE41 des3"/>
    </vehicle>
    <vehicle id="flow12.19" depart="570.00">
        <route edges="res1 -gneE38 gneE39 gneE43 gneE44 des2"/>
    </vehicle>
    <vehicle id="flow01.8" depart="576.00">
        <route edges="res1 p1en"/>
    </vehicle>
    <vehicle id="flow05.8" depart="576.00">
        <route edges="res2 -gneE44 p2en"/>
    </vehicle>
    <vehicle id="flow03.5" depart="600.00">
        <route edges="res3 -gneE41 -gneE40 gneE43 p2en"/>
    </vehicle>
    <vehicle id="flow06.5" depart="600.00">
        <route edges="res3 -gneE41 p3en"/>
    </vehicle>
    <vehicle id="flow12.20" depart="600.00">
        <route edges="res1 -gneE38 gneE39 gneE43 gneE44 des2"/>
    </vehicle>
    <vehicle id="flow21.15" depart="600.00">
        <route edges="res2 -gneE44 -gneE43 -gneE39 gneE38 des1"/>
    </vehicle>
    <vehicle id="flow23.5" depart="600.00">
        <route edges="res2 -gneE44 -gneE43 gneE40 gneE41 des3"/>
    </vehicle>
    <vehicle id="flow31.15" depart="600.00">
        <route edges="res1 -gneE38 gneE39 gneE40 gneE41 des3"/>
    </vehicle>
    <vehicle id="flow32.10" depart="600.00">
        <route edges="res2 -gneE44 -gneE43 gneE40 gneE41 des3"/>
    </vehicle>
    <vehicle id="flow02.7" depart="630.00">
        <route edges="res2 -gneE44 -gneE43 -gneE39 gneE38 p1en"/>
    </vehicle>
    <vehicle id="flow04.7" depart="630.00">
        <route edges="res1 -gneE38 gneE39 gneE43 p2en"/>
    </vehicle>
    <vehicle id="flow12.21" depart="630.00">
        <route edges="res1 -gneE38 gneE39 gneE43 gneE44 des2"/>
    </vehicle>
    <vehicle id="flow13.8" depart="640.00">
        <route edges="res1 -gneE38 gneE39 gneE40 gneE41 des3"/>
    </vehicle>
    <vehicle id="flow21.16" depart="640.00">
        <route edges="res2 -gneE44 -gneE43 -gneE39 gneE38 des1"/>
    </vehicle>
    <vehicle id="flow31.16" depart="640.00">
        <route edges="res1 -gneE38 gneE39 gneE40 gneE41 des3"/>
    </vehicle>
    <vehicle id="flow01.9" depart="648.00">
        <route edges="res1 p1en"/>
    </vehicle>
    <vehicle id="flow05.9" depart="648.00">
        <route edges="res2 -gneE44 p2en"/>
    </vehicle>
    <vehicle id="flow12.22" depart="660.00">
        <route edges="res1 -gneE38 gneE39 gneE43 gneE44 des2"/>
    </vehicle>
    <vehicle id="flow32.11" depart="660.00">
        <route edges="res2 -gneE44 -gneE43 gneE40 gneE41 des3"/>
    </vehicle>
    <vehicle id="flow21.17" depart="680.00">
        <route edges="res2 -gneE44 -gneE43 -gneE39 gneE38 des1"/>
    </vehicle>
    <vehicle id="flow31.17" depart="680.00">
        <route edges="res1 -gneE38 gneE39 gneE40 gneE41 des3"/>
    </vehicle>
    <vehicle id="flow12.23" depart="690.00">
        <route edges="res1 -gneE38 gneE39 gneE43 gneE44 des2"/>
    </vehicle>
    <vehicle id="flow01.10" depart="720.00">
        <route edges="res1 p1en"/>
    </vehicle>
    <vehicle id="flow02.8" depart="720.00">
        <route edges="res2 -gneE44 -gneE43 -gneE39 gneE38 p1en"/>
    </vehicle>
    <vehicle id="flow03.6" depart="720.00">
        <route edges="res3 -gneE41 -gneE40 gneE43 p2en"/>
    </vehicle>
    <vehicle id="flow04.8" depart="720.00">
        <route edges="res1 -gneE38 gneE39 gneE43 p2en"/>
    </vehicle>
    <vehicle id="flow05.10" depart="720.00">
        <route edges="res2 -gneE44 p2en"/>
    </vehicle>
    <vehicle id="flow06.6" depart="720.00">
        <route edges="res3 -gneE41 p3en"/>
    </vehicle>
    <vehicle id="flow07.4" depart="720.00">
        <route edges="res1 -gneE38 gneE39 gneE40 p3en"/>
    </vehicle>
    <vehicle id="flow08.4" depart="720.00">
        <route edges="res2 -gneE44 -gneE43 gneE40 p3en"/>
    </vehicle>
    <vehicle id="flow09.4" depart="720.00">
        <route edges="res3 -gneE41 -gneE40 -gneE39 gneE38 p1en"/>
    </vehicle>
    <vehicle id="flow12.24" depart="720.00">
        <route edges="res1 -gneE38 gneE39 gneE43 gneE44 des2"/>
    </vehicle>
    <vehicle id="flow13.9" depart="720.00">
        <route edges="res1 -gneE38 gneE39 gneE40 gneE41 des3"/>
    </vehicle>
    <vehicle id="flow21.18" depart="720.00">
        <route edges="res2 -gneE44 -gneE43 -gneE39 gneE38 des1"/>
    </vehicle>
    <vehicle id="flow23.6" depart="720.00">
        <route edges="res2 -gneE44 -gneE43 gneE40 gneE41 des3"/>
    </vehicle>
    <vehicle id="flow31.18" depart="720.00">
        <route edges="res1 -gneE38 gneE39 gneE40 gneE41 des3"/>
    </vehicle>
    <vehicle id="flow32.12" depart="720.00">
        <route edges="res2 -gneE44 -gneE43 gneE40 gneE41 des3"/>
    </vehicle>
    <vehicle id="flow12.25" depart="750.00">
        <route edges="res1 -gneE38 gneE39 gneE43 gneE44 des2"/>
    </vehicle>
    <vehicle id="flow21.19" depart="760.00">
        <route edges="res2 -gneE44 -gneE43 -gneE39 gneE38 des1"/>
    </vehicle>
    <vehicle id="flow31.19" depart="760.00">
        <route edges="res1 -gneE38 gneE39 gneE40 gneE41 des3"/>
    </vehicle>
    <vehicle id="flow12.26" depart="780.00">
        <route edges="res1 -gneE38 gneE39 gneE43 gneE44 des2"/>
    </vehicle>
    <vehicle id="flow32.13" depart="780.00">
        <route edges="res2 -gneE44 -gneE43 gneE40 gneE41 des3"/>
    </vehicle>
    <vehicle id="flow01.11" depart="792.00">
        <route edges="res1 p1en"/>
    </vehicle>
    <vehicle id="flow05.11" depart="792.00">
        <route edges="res2 -gneE44 p2en"/>
    </vehicle>
    <vehicle id="flow13.10" depart="800.00">
        <route edges="res1 -gneE38 gneE39 gneE40 gneE41 des3"/>
    </vehicle>
    <vehicle id="flow21.20" depart="800.00">
        <route edges="res2 -gneE44 -gneE43 -gneE39 gneE38 des1"/>
    </vehicle>
    <vehicle id="flow31.20" depart="800.00">
        <route edges="res1 -gneE38 gneE39 gneE40 gneE41 des3"/>
    </vehicle>
    <vehicle id="flow02.9" depart="810.00">
        <route edges="res2 -gneE44 -gneE43 -gneE39 gneE38 p1en"/>
    </vehicle>
    <vehicle id="flow04.9" depart="810.00">
        <route edges="res1 -gneE38 gneE39 gneE43 p2en"/>
    </vehicle>
    <vehicle id="flow12.27" depart="810.00">
        <route edges="res1 -gneE38 gneE39 gneE43 gneE44 des2"/>
    </vehicle>
    <vehicle id="flow03.7" depart="840.00">
        <route edges="res3 -gneE41 -gneE40 gneE43 p2en"/>
    </vehicle>
    <vehicle id="flow06.7" depart="840.00">
        <route edges="res3 -gneE41 p3en"/>
    </vehicle>
    <vehicle id="flow12.28" depart="840.00">
        <route edges="res1 -gneE38 gneE39 gneE43 gneE44 des2"/>
    </vehicle>
    <vehicle id="flow21.21" depart="840.00">
        <route edges="res2 -gneE44 -gneE43 -gneE39 gneE38 des1"/>
    </vehicle>
    <vehicle id="flow23.7" depart="840.00">
        <route edges="res2 -gneE44 -gneE43 gneE40 gneE41 des3"/>
    </vehicle>
    <vehicle id="flow31.21" depart="840.00">
        <route edges="res1 -gneE38 gneE39 gneE40 gneE41 des3"/>
    </vehicle>
    <vehicle id="flow32.14" depart="840.00">
        <route edges="res2 -gneE44 -gneE43 gneE40 gneE41 des3"/>
    </vehicle>
    <vehicle id="flow01.12" depart="864.00">
        <route edges="res1 p1en"/>
    </vehicle>
    <vehicle id="flow05.12" depart="864.00">
        <route edges="res2 -gneE44 p2en"/>
    </vehicle>
    <vehicle id="flow12.29" depart="870.00">
        <route edges="res1 -gneE38 gneE39 gneE43 gneE44 des2"/>
    </vehicle>
    <vehicle id="flow13.11" depart="880.00">
        <route edges="res1 -gneE38 gneE39 gneE40 gneE41 des3"/>
    </vehicle>
    <vehicle id="flow21.22" depart="880.00">
        <route edges="res2 -gneE44 -gneE43 -gneE39 gneE38 des1"/>
    </vehicle>
    <vehicle id="flow31.22" depart="880.00">
        <route edges="res1 -gneE38 gneE39 gneE40 gneE41 des3"/>
    </vehicle>
    <vehicle id="flow02.10" depart="900.00">
        <route edges="res2 -gneE44 -gneE43 -gneE39 gneE38 p1en"/>
    </vehicle>
    <vehicle id="flow04.10" depart="900.00">
        <route edges="res1 -gneE38 gneE39 gneE43 p2en"/>
    </vehicle>
    <vehicle id="flow07.5" depart="900.00">
        <route edges="res1 -gneE38 gneE39 gneE40 p3en"/>
    </vehicle>
    <vehicle id="flow08.5" depart="900.00">
        <route edges="res2 -gneE44 -gneE43 gneE40 p3en"/>
    </vehicle>
    <vehicle id="flow09.5" depart="900.00">
        <route edges="res3 -gneE41 -gneE40 -gneE39 gneE38 p1en"/>
    </vehicle>
    <vehicle id="flow12.30" depart="900.00">
        <route edges="res1 -gneE38 gneE39 gneE43 gneE44 des2"/>
    </vehicle>
    <vehicle id="flow32.15" depart="900.00">
        <route edges="res2 -gneE44 -gneE43 gneE40 gneE41 des3"/>
    </vehicle>
    <vehicle id="flow21.23" depart="920.00">
        <route edges="res2 -gneE44 -gneE43 -gneE39 gneE38 des1"/>
    </vehicle>
    <vehicle id="flow31.23" depart="920.00">
        <route edges="res1 -gneE38 gneE39 gneE40 gneE41 des3"/>
    </vehicle>
    <vehicle id="flow12.31" depart="930.00">
        <route edges="res1 -gneE38 gneE39 gneE43 gneE44 des2"/>
    </vehicle>
    <vehicle id="flow01.13" depart="936.00">
        <route edges="res1 p1en"/>
    </vehicle>
    <vehicle id="flow05.13" depart="936.00">
        <route edges="res2 -gneE44 p2en"/>
    </vehicle>
    <vehicle id="flow03.8" depart="960.00">
        <route edges="res3 -gneE41 -gneE40 gneE43 p2en"/>
    </vehicle>
    <vehicle id="flow06.8" depart="960.00">
        <route edges="res3 -gneE41 p3en"/>
    </vehicle>
    <vehicle id="flow12.32" depart="960.00">
        <route edges="res1 -gneE38 gneE39 gneE43 gneE44 des2"/>
    </vehicle>
    <vehicle id="flow13.12" depart="960.00">
        <route edges="res1 -gneE38 gneE39 gneE40 gneE41 des3"/>
    </vehicle>
    <vehicle id="flow21.24" depart="960.00">
        <route edges="res2 -gneE44 -gneE43 -gneE39 gneE38 des1"/>
    </vehicle>
    <vehicle id="flow23.8" depart="960.00">
        <route edges="res2 -gneE44 -gneE43 gneE40 gneE41 des3"/>
    </vehicle>
    <vehicle id="flow31.24" depart="960.00">
        <route edges="res1 -gneE38 gneE39 gneE40 gneE41 des3"/>
    </vehicle>
    <vehicle id="flow32.16" depart="960.00">
        <route edges="res2 -gneE44 -gneE43 gneE40 gneE41 des3"/>
    </vehicle>
    <vehicle id="flow02.11" depart="990.00">
        <route edges="res2 -gneE44 -gneE43 -gneE39 gneE38 p1en"/>
    </vehicle>
    <vehicle id="flow04.11" depart="990.00">
        <route edges="res1 -gneE38 gneE39 gneE43 p2en"/>
    </vehicle>
    <vehicle id="flow12.33" depart="990.00">
        <route edges="res1 -gneE38 gneE39 gneE43 gneE44 des2"/>
    </vehicle>
    <vehicle id="flow21.25" depart="1000.00">
        <route edges="res2 -gneE44 -gneE43 -gneE39 gneE38 des1"/>
    </vehicle>
    <vehicle id="flow31.25" depart="1000.00">
        <route edges="res1 -gneE38 gneE39 gneE40 gneE41 des3"/>
    </vehicle>
    <vehicle id="flow01.14" depart="1008.00">
        <route edges="res1 p1en"/>
    </vehicle>
    <vehicle id="flow05.14" depart="1008.00">
        <route edges="res2 -gneE44 p2en"/>
    </vehicle>
    <vehicle id="flow12.34" depart="1020.00">
        <route edges="res1 -gneE38 gneE39 gneE43 gneE44 des2"/>
    </vehicle>
    <vehicle id="flow32.17" depart="1020.00">
        <route edges="res2 -gneE44 -gneE43 gneE40 gneE41 des3"/>
    </vehicle>
    <vehicle id="flow13.13" depart="1040.00">
        <route edges="res1 -gneE38 gneE39 gneE40 gneE41 des3"/>
    </vehicle>
    <vehicle id="flow21.26" depart="1040.00">
        <route edges="res2 -gneE44 -gneE43 -gneE39 gneE38 des1"/>
    </vehicle>
    <vehicle id="flow31.26" depart="1040.00">
        <route edges="res1 -gneE38 gneE39 gneE40 gneE41 des3"/>
    </vehicle>
    <vehicle id="flow12.35" depart="1050.00">
        <route edges="res1 -gneE38 gneE39 gneE43 gneE44 des2"/>
    </vehicle>
    <vehicle id="flow01.15" depart="1080.00">
        <route edges="res1 p1en"/>
    </vehicle>
    <vehicle id="flow02.12" depart="1080.00">
        <route edges="res2 -gneE44 -gneE43 -gneE39 gneE38 p1en"/>
    </vehicle>
    <vehicle id="flow03.9" depart="1080.00">
        <route edges="res3 -gneE41 -gneE40 gneE43 p2en"/>
    </vehicle>
    <vehicle id="flow04.12" depart="1080.00">
        <route edges="res1 -gneE38 gneE39 gneE43 p2en"/>
    </vehicle>
    <vehicle id="flow05.15" depart="1080.00">
        <route edges="res2 -gneE44 p2en"/>
    </vehicle>
    <vehicle id="flow06.9" depart="1080.00">
        <route edges="res3 -gneE41 p3en"/>
    </vehicle>
    <vehicle id="flow07.6" depart="1080.00">
        <route edges="res1 -gneE38 gneE39 gneE40 p3en"/>
    </vehicle>
    <vehicle id="flow08.6" depart="1080.00">
        <route edges="res2 -gneE44 -gneE43 gneE40 p3en"/>
    </vehicle>
    <vehicle id="flow09.6" depart="1080.00">
        <route edges="res3 -gneE41 -gneE40 -gneE39 gneE38 p1en"/>
    </vehicle>
    <vehicle id="flow12.36" depart="1080.00">
        <route edges="res1 -gneE38 gneE39 gneE43 gneE44 des2"/>
    </vehicle>
    <vehicle id="flow21.27" depart="1080.00">
        <route edges="res2 -gneE44 -gneE43 -gneE39 gneE38 des1"/>
    </vehicle>
    <vehicle id="flow23.9" depart="1080.00">
        <route edges="res2 -gneE44 -gneE43 gneE40 gneE41 des3"/>
    </vehicle>
    <vehicle id="flow31.27" depart="1080.00">
        <route edges="res1 -gneE38 gneE39 gneE40 gneE41 des3"/>
    </vehicle>
    <vehicle id="flow32.18" depart="1080.00">
        <route edges="res2 -gneE44 -gneE43 gneE40 gneE41 des3"/>
    </vehicle>
    <vehicle id="flow12.37" depart="1110.00">
        <route edges="res1 -gneE38 gneE39 gneE43 gneE44 des2"/>
    </vehicle>
    <vehicle id="flow13.14" depart="1120.00">
        <route edges="res1 -gneE38 gneE39 gneE40 gneE41 des3"/>
    </vehicle>
    <vehicle id="flow21.28" depart="1120.00">
        <route edges="res2 -gneE44 -gneE43 -gneE39 gneE38 des1"/>
    </vehicle>
    <vehicle id="flow31.28" depart="1120.00">
        <route edges="res1 -gneE38 gneE39 gneE40 gneE41 des3"/>
    </vehicle>
    <vehicle id="flow12.38" depart="1140.00">
        <route edges="res1 -gneE38 gneE39 gneE43 gneE44 des2"/>
    </vehicle>
    <vehicle id="flow32.19" depart="1140.00">
        <route edges="res2 -gneE44 -gneE43 gneE40 gneE41 des3"/>
    </vehicle>