<?xml version="1.0" encoding="UTF-8"?>

<!-- generated on 2017/01/28 1:58:36 by Netedit Version 0.27.1
<?xml version="1.0" encoding="UTF-8"?>

<configuration xmlns:xsi="http://www.w3.org/2001/XMLSchema-instance" xsi:noNamespaceSchemaLocation="http://sumo.dlr.de/xsd/netedit.exeConfiguration.xsd">

    <input>
        <sumo-net-file value="C:\Users\rfujii\Desktop\SupportSystem\data\test\sim.net.xml"/>
    </input>

    <output>
        <output-file value="C:\Users\rfujii\Desktop\SupportSystem\data\test\sim.net.xml"/>
    </output>

    <processing>
        <no-turnarounds value="true"/>
        <offset.disable-normalization value="true"/>
        <lefthand value="true"/>
        <junctions.corner-detail value="0"/>
    </processing>

    <visualisation>
        <registry-viewport value="true"/>
    </visualisation>

</configuration>
-->

<net version="0.27" lefthand="true" xmlns:xsi="http://www.w3.org/2001/XMLSchema-instance" xsi:noNamespaceSchemaLocation="http://sumo.dlr.de/xsd/net_file.xsd">

    <location netOffset="0.00,-0.00" convBoundary="-44.08,-89.99,806.50,201.78" origBoundary="0.00,0.00,360.00,360.00" projParameter="!"/>

    <edge id=":gneJ40_0" function="internal">
        <lane id=":gneJ40_0_0" index="0" speed="13.89" length="13.72" shape="49.95,141.78 36.23,141.78"/>
    </edge>
    <edge id=":gneJ40_1" function="internal">
        <lane id=":gneJ40_1_0" index="0" speed="13.89" length="8.33" shape="49.95,141.78 45.30,142.18 41.99,143.38 41.89,143.48"/>
    </edge>
    <edge id=":gneJ40_4" function="internal">
        <lane id=":gneJ40_4_0" index="0" speed="13.89" length="5.56" shape="41.89,143.48 39.99,145.38 39.33,148.18"/>
    </edge>
    <edge id=":gneJ40_2" function="internal">
        <lane id=":gneJ40_2_0" index="0" speed="13.89" length="5.00" shape="36.23,145.08 37.59,145.27 38.56,145.86 39.14,146.82 39.33,148.18"/>
    </edge>
    <edge id=":gneJ40_3" function="internal">
        <lane id=":gneJ40_3_0" index="0" speed="13.89" length="13.72" shape="36.23,145.08 49.95,145.08"/>
    </edge>
    <edge id=":gneJ41_0" function="internal">
        <lane id=":gneJ41_0_0" index="0" speed="13.89" length="9.50" shape="215.84,141.78 206.34,141.78"/>
    </edge>
    <edge id=":gneJ41_1" function="internal">
        <lane id=":gneJ41_1_0" index="0" speed="13.89" length="5.00" shape="212.74,148.18 212.93,146.82 213.52,145.86 214.48,145.27 215.84,145.08"/>
    </edge>
    <edge id=":gneJ41_2" function="internal">
        <lane id=":gneJ41_2_0" index="0" speed="13.89" length="10.32" shape="212.74,148.18 212.34,145.38 211.14,143.38 209.14,142.18 206.34,141.78"/>
    </edge>
    <edge id=":gneJ41_3" function="internal">
        <lane id=":gneJ41_3_0" index="0" speed="13.89" length="9.50" shape="206.34,145.08 215.84,145.08"/>
    </edge>
    <edge id=":gneJ42_0" function="internal">
        <lane id=":gneJ42_0_0" index="0" speed="13.89" length="8.68" shape="464.62,138.68 464.16,140.04 462.79,141.01 460.50,141.59 457.30,141.78"/>
    </edge>
    <edge id=":gneJ42_1" function="internal">
        <lane id=":gneJ42_1_0" index="0" speed="13.89" length="10.32" shape="464.62,138.68 465.02,141.48 466.22,143.48 468.22,144.68 471.02,145.08"/>
    </edge>
    <edge id=":gneJ42_2" function="internal">
        <lane id=":gneJ42_2_0" index="0" speed="13.89" length="5.00" shape="471.02,141.78 469.66,141.59 468.69,141.01 468.11,140.04 467.92,138.68"/>
    </edge>
    <edge id=":gneJ42_3" function="internal">
        <lane id=":gneJ42_3_0" index="0" speed="13.89" length="13.72" shape="471.02,141.78 457.30,141.78"/>
    </edge>
    <edge id=":gneJ42_4" function="internal">
        <lane id=":gneJ42_4_0" index="0" speed="13.89" length="13.72" shape="457.30,145.08 471.02,145.08"/>
    </edge>
    <edge id=":gneJ42_5" function="internal">
        <lane id=":gneJ42_5_0" index="0" speed="13.89" length="8.33" shape="457.30,145.08 461.95,144.68 465.26,143.48 465.36,143.38"/>
    </edge>
    <edge id=":gneJ42_6" function="internal">
        <lane id=":gneJ42_6_0" index="0" speed="13.89" length="5.56" shape="465.36,143.38 467.26,141.48 467.92,138.68"/>
    </edge>
    <edge id=":gneJ43_0" function="internal">
        <lane id=":gneJ43_0_0" index="0" speed="13.89" length="9.50" shape="464.62,80.32 464.62,89.82"/>
    </edge>
    <edge id=":gneJ43_1" function="internal">
        <lane id=":gneJ43_1_0" index="0" speed="13.89" length="5.28" shape="464.62,80.32 465.02,83.12 466.22,85.12 466.32,85.18"/>
    </edge>
    <edge id=":gneJ43_4" function="internal">
        <lane id=":gneJ43_4_0" index="0" speed="13.89" length="5.04" shape="466.32,85.18 468.22,86.32 471.02,86.72"/>
    </edge>
    <edge id=":gneJ43_2" function="internal">
        <lane id=":gneJ43_2_0" index="0" speed="13.89" length="5.00" shape="467.92,89.82 468.11,88.46 468.69,87.50 469.66,86.91 471.02,86.72"/>
    </edge>
    <edge id=":gneJ43_3" function="internal">
        <lane id=":gneJ43_3_0" index="0" speed="13.89" length="9.50" shape="467.92,89.82 467.92,80.32"/>
    </edge>
    <edge id=":gneJ44_0" function="internal">
        <lane id=":gneJ44_0_0" index="0" speed="13.89" length="9.50" shape="464.62,-36.39 464.62,-26.89"/>
    </edge>
    <edge id=":gneJ44_1" function="internal">
        <lane id=":gneJ44_1_0" index="0" speed="13.89" length="5.00" shape="471.02,-33.29 469.66,-33.48 468.69,-34.07 468.11,-35.03 467.92,-36.39"/>
    </edge>
    <edge id=":gneJ44_2" function="internal">
        <lane id=":gneJ44_2_0" index="0" speed="13.89" length="10.32" shape="471.02,-33.29 468.22,-32.89 466.22,-31.69 465.02,-29.69 464.62,-26.89"/>
    </edge>
    <edge id=":gneJ44_3" function="internal">
        <lane id=":gneJ44_3_0" index="0" speed="13.89" length="9.50" shape="467.92,-26.89 467.92,-36.39"/>
    </edge>
    <edge id=":gneJ46_0" function="internal">
        <lane id=":gneJ46_0_0" index="0" speed="13.89" length="13.72" shape="560.30,141.78 546.58,141.78"/>
    </edge>
    <edge id=":gneJ46_1" function="internal">
        <lane id=":gneJ46_1_0" index="0" speed="13.89" length="8.33" shape="560.30,141.78 555.65,142.18 552.34,143.38 552.24,143.48"/>
    </edge>
    <edge id=":gneJ46_4" function="internal">
        <lane id=":gneJ46_4_0" index="0" speed="13.89" length="5.56" shape="552.24,143.48 550.34,145.38 549.68,148.18"/>
    </edge>
    <edge id=":gneJ46_2" function="internal">
        <lane id=":gneJ46_2_0" index="0" speed="13.89" length="5.00" shape="546.58,145.08 547.94,145.27 548.90,145.86 549.49,146.82 549.68,148.18"/>
    </edge>
    <edge id=":gneJ46_3" function="internal">
        <lane id=":gneJ46_3_0" index="0" speed="13.89" length="13.72" shape="546.58,145.08 560.30,145.08"/>
    </edge>
    <edge id=":gneJ47_0" function="internal">
        <lane id=":gneJ47_0_0" index="0" speed="13.89" length="13.72" shape="726.19,141.78 712.47,141.78"/>
    </edge>
    <edge id=":gneJ47_1" function="internal">
        <lane id=":gneJ47_1_0" index="0" speed="13.89" length="5.00" shape="723.09,148.18 723.28,146.82 723.87,145.86 724.83,145.27 726.19,145.08"/>
    </edge>
    <edge id=":gneJ47_2" function="internal">
        <lane id=":gneJ47_2_0" index="0" speed="13.89" length="13.89" shape="723.09,148.18 722.43,145.38 720.43,143.38 717.12,142.18 712.47,141.78"/>
    </edge>
    <edge id=":gneJ47_3" function="internal">
        <lane id=":gneJ47_3_0" index="0" speed="13.89" length="13.72" shape="712.47,145.08 726.19,145.08"/>
    </edge>
    <edge id=":gneJ49_0" function="internal">
        <lane id=":gneJ49_0_0" index="0" speed="13.89" length="7.90" shape="549.68,198.53 549.99,200.67 550.91,202.20 552.44,203.12 554.58,203.43"/>
    </edge>
    <edge id=":gneJ49_1" function="internal">
        <lane id=":gneJ49_1_0" index="0" speed="13.89" length="2.58" shape="554.58,200.13 553.88,200.03 553.38,199.73 553.08,199.23 552.98,198.53"/>
    </edge>
    <edge id=":gneJ50_0" function="internal">
        <lane id=":gneJ50_0_0" index="0" speed="13.89" length="2.58" shape="719.79,198.53 719.69,199.23 719.39,199.73 718.89,200.03 718.19,200.13"/>
    </edge>
    <edge id=":gneJ50_1" function="internal">
        <lane id=":gneJ50_1_0" index="0" speed="13.89" length="7.90" shape="718.19,203.43 720.33,203.12 721.87,202.20 722.78,200.67 723.09,198.53"/>
    </edge>
    <edge id=":gneJ55_0" function="internal">
        <lane id=":gneJ55_0_0" index="0" speed="13.89" length="2.58" shape="549.68,81.82 549.58,82.52 549.28,83.02 548.78,83.32 548.08,83.42"/>
    </edge>
    <edge id=":gneJ55_1" function="internal">
        <lane id=":gneJ55_1_0" index="0" speed="13.89" length="7.90" shape="548.08,86.72 550.22,86.41 551.76,85.50 552.67,83.96 552.98,81.82"/>
    </edge>
    <edge id=":gneJ56_0" function="internal">
        <lane id=":gneJ56_0_0" index="0" speed="13.89" length="7.90" shape="552.98,-28.39 552.67,-30.53 551.76,-32.06 550.22,-32.98 548.08,-33.29"/>
    </edge>
    <edge id=":gneJ56_1" function="internal">
        <lane id=":gneJ56_1_0" index="0" speed="13.89" length="2.58" shape="548.08,-29.99 548.78,-29.89 549.28,-29.59 549.58,-29.09 549.68,-28.39"/>
    </edge>
    <edge id=":gneJ61_0" function="internal">
        <lane id=":gneJ61_0_0" index="0" speed="13.89" length="2.58" shape="209.44,198.53 209.34,199.23 209.04,199.73 208.54,200.03 207.84,200.13"/>
    </edge>
    <edge id=":gneJ61_1" function="internal">
        <lane id=":gneJ61_1_0" index="0" speed="13.89" length="7.90" shape="207.84,203.43 209.98,203.12 211.51,202.20 212.43,200.67 212.74,198.53"/>
    </edge>
    <edge id=":gneJ62_0" function="internal">
        <lane id=":gneJ62_0_0" index="0" speed="13.89" length="7.90" shape="39.33,198.53 39.64,200.67 40.56,202.20 42.09,203.12 44.23,203.43"/>
    </edge>
    <edge id=":gneJ62_1" function="internal">
        <lane id=":gneJ62_1_0" index="0" speed="13.89" length="2.58" shape="44.23,200.13 43.53,200.03 43.03,199.73 42.73,199.23 42.63,198.53"/>
    </edge>

    <edge id="-gneE38" from="gneJ40" to="gneJ41" priority="1">
        <lane id="-gneE38_0" index="0" speed="13.89" length="156.39" shape="49.95,145.08 206.34,145.08"/>
    </edge>
    <edge id="-gneE39" from="gneJ42" to="gneJ41" priority="1">
        <lane id="-gneE39_0" index="0" speed="13.89" length="241.46" shape="457.30,141.78 215.84,141.78"/>
    </edge>
    <edge id="-gneE40" from="gneJ43" to="gneJ42" priority="1">
        <lane id="-gneE40_0" index="0" speed="13.89" length="48.86" shape="464.62,89.82 464.62,138.68"/>
    </edge>
    <edge id="-gneE41" from="gneJ44" to="gneJ43" priority="1">
        <lane id="-gneE41_0" index="0" speed="13.89" length="107.21" shape="464.62,-26.89 464.62,80.32"/>
    </edge>
    <edge id="-gneE43" from="gneJ46" to="gneJ42" priority="1">
        <lane id="-gneE43_0" index="0" speed="13.89" length="75.56" shape="546.58,141.78 471.02,141.78"/>
    </edge>
    <edge id="-gneE44" from="gneJ47" to="gneJ46" priority="1">
        <lane id="-gneE44_0" index="0" speed="13.89" length="152.17" shape="712.47,141.78 560.30,141.78"/>
    </edge>
    <edge id="-gneE46" from="gneJ49" to="gneJ46" priority="1">
        <lane id="-gneE46_0" index="0" speed="13.89" length="50.35" shape="552.98,198.53 552.98,148.18"/>
    </edge>
    <edge id="-gneE47" from="gneJ50" to="gneJ49" priority="1">
        <lane id="-gneE47_0" index="0" speed="13.89" length="163.61" shape="718.19,200.13 554.58,200.13"/>
    </edge>
    <edge id="-gneE48" from="gneJ47" to="gneJ50" priority="1">
        <lane id="-gneE48_0" index="0" speed="13.89" length="50.35" shape="719.79,148.18 719.79,198.53"/>
    </edge>
    <edge id="-gneE53" from="gneJ55" to="gneJ43" priority="1">
        <lane id="-gneE53_0" index="0" speed="13.89" length="77.06" shape="548.08,83.42 471.02,83.42"/>
    </edge>
    <edge id="-gneE54" from="gneJ56" to="gneJ55" priority="1">
        <lane id="-gneE54_0" index="0" speed="13.89" length="110.21" shape="549.68,-28.39 549.68,81.82"/>
    </edge>
    <edge id="-gneE55" from="gneJ44" to="gneJ56" priority="1">
        <lane id="-gneE55_0" index="0" speed="13.89" length="77.06" shape="471.02,-29.99 548.08,-29.99"/>
    </edge>
    <edge id="-gneE62" from="gneJ61" to="gneJ62" priority="1">
        <lane id="-gneE62_0" index="0" speed="13.89" length="163.61" shape="207.84,200.13 44.23,200.13"/>
    </edge>
    <edge id="des1" from="gneJ40" to="gneJ39" priority="1">
        <lane id="des1_0" index="0" speed="13.89" length="80.31" shape="36.23,141.78 -44.08,141.78"/>
    </edge>
    <edge id="des2" from="gneJ47" to="gneJ48" priority="1">
        <lane id="des2_0" index="0" speed="13.89" length="80.31" shape="726.19,145.08 806.50,145.08"/>
    </edge>
    <edge id="des3" from="gneJ44" to="gneJ45" priority="1">
        <lane id="des3_0" index="0" speed="13.89" length="53.60" shape="467.92,-36.39 467.92,-89.99"/>
    </edge>
    <edge id="gneE38" from="gneJ41" to="gneJ40" priority="1">
        <lane id="gneE38_0" index="0" speed="13.89" length="156.39" shape="206.34,141.78 49.95,141.78"/>
    </edge>
    <edge id="gneE39" from="gneJ41" to="gneJ42" priority="1">
        <lane id="gneE39_0" index="0" speed="13.89" length="241.46" shape="215.84,145.08 457.30,145.08"/>
    </edge>
    <edge id="gneE40" from="gneJ42" to="gneJ43" priority="1">
        <lane id="gneE40_0" index="0" speed="13.89" length="48.86" shape="467.92,138.68 467.92,89.82"/>
    </edge>
    <edge id="gneE41" from="gneJ43" to="gneJ44" priority="1">
        <lane id="gneE41_0" index="0" speed="13.89" length="107.21" shape="467.92,80.32 467.92,-26.89"/>
    </edge>
    <edge id="gneE43" from="gneJ42" to="gneJ46" priority="1">
        <lane id="gneE43_0" index="0" speed="13.89" length="75.56" shape="471.02,145.08 546.58,145.08"/>
    </edge>
    <edge id="gneE44" from="gneJ46" to="gneJ47" priority="1">
        <lane id="gneE44_0" index="0" speed="13.89" length="152.17" shape="560.30,145.08 712.47,145.08"/>
    </edge>
    <edge id="gneE47" from="gneJ49" to="gneJ50" priority="1">
        <lane id="gneE47_0" index="0" speed="13.89" length="163.61" shape="554.58,203.43 718.19,203.43"/>
    </edge>
    <edge id="gneE54" from="gneJ55" to="gneJ56" priority="1">
        <lane id="gneE54_0" index="0" speed="13.89" length="110.21" shape="552.98,81.82 552.98,-28.39"/>
    </edge>
    <edge id="gneE60" from="gneJ41" to="gneJ61" priority="1">
        <lane id="gneE60_0" index="0" speed="13.89" length="50.35" shape="209.44,148.18 209.44,198.53"/>
    </edge>
    <edge id="gneE61" from="gneJ62" to="gneJ40" priority="1">
        <lane id="gneE61_0" index="0" speed="13.89" length="50.35" shape="42.63,198.53 42.63,148.18"/>
    </edge>
    <edge id="gneE62" from="gneJ62" to="gneJ61" priority="1">
        <lane id="gneE62_0" index="0" speed="13.89" length="163.61" shape="44.23,203.43 207.84,203.43"/>
    </edge>
    <edge id="p1en" from="gneJ40" to="gneJ62" priority="1">
        <lane id="p1en_0" index="0" speed="13.89" length="50.35" shape="39.33,148.18 39.33,198.53"/>
    </edge>
    <edge id="p1ex" from="gneJ61" to="gneJ41" priority="1">
        <lane id="p1ex_0" index="0" speed="13.89" length="50.35" shape="212.74,198.53 212.74,148.18"/>
    </edge>
    <edge id="p2en" from="gneJ46" to="gneJ49" priority="1">
        <lane id="p2en_0" index="0" speed="13.89" length="50.35" shape="549.68,148.18 549.68,198.53"/>
    </edge>
    <edge id="p2ex" from="gneJ50" to="gneJ47" priority="1">
        <lane id="p2ex_0" index="0" speed="13.89" length="50.35" shape="723.09,198.53 723.09,148.18"/>
    </edge>
    <edge id="p3en" from="gneJ43" to="gneJ55" priority="1">
        <lane id="p3en_0" index="0" speed="13.89" length="77.06" shape="471.02,86.72 548.08,86.72"/>
    </edge>
    <edge id="p3ex" from="gneJ56" to="gneJ44" priority="1">
        <lane id="p3ex_0" index="0" speed="13.89" length="77.06" shape="548.08,-33.29 471.02,-33.29"/>
    </edge>
    <edge id="res1" from="gneJ39" to="gneJ40" priority="1">
        <lane id="res1_0" index="0" speed="13.89" length="80.31" shape="-44.08,145.08 36.23,145.08"/>
    </edge>
    <edge id="res2" from="gneJ48" to="gneJ47" priority="1">
        <lane id="res2_0" index="0" speed="13.89" length="80.31" shape="806.50,141.78 726.19,141.78"/>
    </edge>
    <edge id="res3" from="gneJ45" to="gneJ44" priority="1">
        <lane id="res3_0" index="0" speed="13.89" length="53.60" shape="464.62,-89.99 464.62,-36.39"/>
    </edge>

    <tlLogic id="gneJ42" type="static" programID="0" offset="0">
        <phase duration="36" state="rrGGGg"/>
        <phase duration="4" state="rryyyg"/>
        <phase duration="6" state="rrrrrG"/>
        <phase duration="4" state="rrrrry"/>
        <phase duration="36" state="GGGrrr"/>
        <phase duration="4" state="yyyrrr"/>
    </tlLogic>
    <tlLogic id="gneJ42" type="static" programID="1" offset="0">
        <phase duration="36" state="rrGGGg"/>
        <phase duration="4" state="rryyyg"/>
        <phase duration="6" state="rrrrrG"/>
        <phase duration="4" state="rrrrry"/>
        <phase duration="36" state="GGGrrr"/>
        <phase duration="4" state="yyyrrr"/>
    </tlLogic>

    <junction id="gneJ39" type="dead_end" x="-44.08" y="143.43" incLanes="des1_0" intLanes="" shape="-44.08,143.48 -44.08,146.68 -44.08,140.18 -44.08,143.38"/>
    <junction id="gneJ40" type="priority" x="40.98" y="143.43" incLanes="gneE38_0 gneE61_0 res1_0" intLanes=":gneJ40_0_0 :gneJ40_4_0 :gneJ40_2_0 :gneJ40_3_0" shape="49.95,140.18 49.95,146.68 44.23,148.18 37.73,148.18 36.23,146.68 36.23,140.18">
        <request index="0" response="0000" foes="0000" cont="0"/>
        <request index="1" response="1100" foes="1100" cont="1"/>
        <request index="2" response="0000" foes="0010" cont="0"/>
        <request index="3" response="0000" foes="0010" cont="0"/>
    </junction>
    <junction id="gneJ41" type="priority" x="211.09" y="143.43" incLanes="-gneE39_0 p1ex_0 -gneE38_0" intLanes=":gneJ41_0_0 :gneJ41_1_0 :gneJ41_2_0 :gneJ41_3_0" shape="215.84,140.18 215.84,146.68 214.34,148.18 207.84,148.18 206.34,146.68 206.34,140.18">
        <request index="0" response="0000" foes="0100" cont="0"/>
        <request index="1" response="1000" foes="1000" cont="0"/>
        <request index="2" response="1001" foes="1001" cont="0"/>
        <request index="3" response="0000" foes="0110" cont="0"/>
    </junction>
    <junction id="gneJ42" type="traffic_light" x="466.27" y="143.43" incLanes="-gneE40_0 -gneE43_0 gneE39_0" intLanes=":gneJ42_0_0 :gneJ42_1_0 :gneJ42_2_0 :gneJ42_3_0 :gneJ42_4_0 :gneJ42_6_0" shape="463.02,138.68 469.52,138.68 471.02,140.18 471.02,146.68 457.30,146.68 457.30,140.18">
        <request index="0" response="001000" foes="001000" cont="0"/>
        <request index="1" response="111000" foes="111000" cont="0"/>
        <request index="2" response="000000" foes="100000" cont="0"/>
        <request index="3" response="000000" foes="100011" cont="0"/>
        <request index="4" response="000000" foes="000010" cont="0"/>
        <request index="5" response="001100" foes="001110" cont="1"/>
    </junction>
    <junction id="gneJ43" type="priority" x="466.27" y="85.07" incLanes="-gneE41_0 -gneE53_0 gneE40_0" intLanes=":gneJ43_0_0 :gneJ43_4_0 :gneJ43_2_0 :gneJ43_3_0" shape="463.02,80.32 469.52,80.32 471.02,81.82 471.02,88.32 469.52,89.82 463.02,89.82">
        <request index="0" response="0000" foes="0000" cont="0"/>
        <request index="1" response="1100" foes="1100" cont="1"/>
        <request index="2" response="0000" foes="0010" cont="0"/>
        <request index="3" response="0000" foes="0010" cont="0"/>
    </junction>
    <junction id="gneJ44" type="priority" x="466.27" y="-31.64" incLanes="res3_0 p3ex_0 gneE41_0" intLanes=":gneJ44_0_0 :gneJ44_1_0 :gneJ44_2_0 :gneJ44_3_0" shape="463.02,-36.39 469.52,-36.39 471.02,-34.89 471.02,-28.39 469.52,-26.89 463.02,-26.89">
        <request index="0" response="0000" foes="0100" cont="0"/>
        <request index="1" response="1000" foes="1000" cont="0"/>
        <request index="2" response="1001" foes="1001" cont="0"/>
        <request index="3" response="0000" foes="0110" cont="0"/>
    </junction>
    <junction id="gneJ45" type="dead_end" x="466.27" y="-89.99" incLanes="des3_0" intLanes="" shape="466.22,-89.99 463.02,-89.99 469.52,-89.99 466.32,-89.99"/>
    <junction id="gneJ46" type="priority" x="551.33" y="143.43" incLanes="-gneE44_0 -gneE46_0 gneE43_0" intLanes=":gneJ46_0_0 :gneJ46_4_0 :gneJ46_2_0 :gneJ46_3_0" shape="560.30,140.18 560.30,146.68 554.58,148.18 548.08,148.18 546.58,146.68 546.58,140.18">
        <request index="0" response="0000" foes="0000" cont="0"/>
        <request index="1" response="1100" foes="1100" cont="1"/>
        <request index="2" response="0000" foes="0010" cont="0"/>
        <request index="3" response="0000" foes="0010" cont="0"/>
    </junction>
    <junction id="gneJ47" type="priority" x="721.44" y="143.43" incLanes="res2_0 p2ex_0 gneE44_0" intLanes=":gneJ47_0_0 :gneJ47_1_0 :gneJ47_2_0 :gneJ47_3_0" shape="726.19,140.18 726.19,146.68 724.69,148.18 718.19,148.18 712.47,146.68 712.47,140.18">
        <request index="0" response="0000" foes="0100" cont="0"/>
        <request index="1" response="1000" foes="1000" cont="0"/>
        <request index="2" response="1001" foes="1001" cont="0"/>
        <request index="3" response="0000" foes="0110" cont="0"/>
    </junction>
    <junction id="gneJ48" type="dead_end" x="806.50" y="143.43" incLanes="des2_0" intLanes="" shape="806.50,143.38 806.50,140.18 806.50,146.68 806.50,143.48"/>
    <junction id="gneJ49" type="priority" x="551.33" y="201.78" incLanes="p2en_0 -gneE47_0" intLanes=":gneJ49_0_0 :gneJ49_1_0" shape="548.08,198.53 554.58,198.53 554.58,205.03">
        <request index="0" response="00" foes="00" cont="0"/>
        <request index="1" response="00" foes="00" cont="0"/>
    </junction>
    <junction id="gneJ50" type="priority" x="721.44" y="201.78" incLanes="-gneE48_0 gneE47_0" intLanes=":gneJ50_0_0 :gneJ50_1_0" shape="718.19,198.53 724.69,198.53 718.19,205.03 718.19,198.53">
        <request index="0" response="00" foes="00" cont="0"/>
        <request index="1" response="00" foes="00" cont="0"/>
    </junction>
    <junction id="gneJ55" type="priority" x="551.33" y="85.07" incLanes="-gneE54_0 p3en_0" intLanes=":gneJ55_0_0 :gneJ55_1_0" shape="548.08,81.82 554.58,81.82 548.08,88.32 548.08,81.82">
        <request index="0" response="00" foes="00" cont="0"/>
        <request index="1" response="00" foes="00" cont="0"/>
    </junction>
    <junction id="gneJ56" type="priority" x="551.33" y="-31.64" incLanes="gneE54_0 -gneE55_0" intLanes=":gneJ56_0_0 :gneJ56_1_0" shape="554.58,-28.39 548.08,-28.39 548.08,-34.89">
        <request index="0" response="00" foes="00" cont="0"/>
        <request index="1" response="00" foes="00" cont="0"/>
    </junction>
    <junction id="gneJ61" type="priority" x="211.09" y="201.78" incLanes="gneE60_0 gneE62_0" intLanes=":gneJ61_0_0 :gneJ61_1_0" shape="207.84,198.53 214.34,198.53 207.84,205.03 207.84,198.53">
        <request index="0" response="00" foes="00" cont="0"/>
        <request index="1" response="00" foes="00" cont="0"/>
    </junction>
    <junction id="gneJ62" type="priority" x="40.98" y="201.78" incLanes="p1en_0 -gneE62_0" intLanes=":gneJ62_0_0 :gneJ62_1_0" shape="37.73,198.53 44.23,198.53 44.23,205.03">
        <request index="0" response="00" foes="00" cont="0"/>
        <request index="1" response="00" foes="00" cont="0"/>
    </junction>

    <junction id=":gneJ40_4_0" type="internal" x="41.89" y="143.48" incLanes=":gneJ40_1_0 res1_0" intLanes=":gneJ40_2_0 :gneJ40_3_0"/>
    <junction id=":gneJ42_6_0" type="internal" x="465.36" y="143.38" incLanes=":gneJ42_5_0 -gneE43_0" intLanes=":gneJ42_1_0 :gneJ42_2_0 :gneJ42_3_0"/>
    <junction id=":gneJ43_4_0" type="internal" x="466.32" y="85.18" incLanes=":gneJ43_1_0 gneE40_0" intLanes=":gneJ43_2_0 :gneJ43_3_0"/>
    <junction id=":gneJ46_4_0" type="internal" x="552.24" y="143.48" incLanes=":gneJ46_1_0 gneE43_0" intLanes=":gneJ46_2_0 :gneJ46_3_0"/>

    <connection from="-gneE38" to="gneE39" fromLane="0" toLane="0" via=":gneJ41_3_0" dir="s" state="M"/>
    <connection from="-gneE39" to="gneE38" fromLane="0" toLane="0" via=":gneJ41_0_0" dir="s" state="M"/>
    <connection from="-gneE40" to="-gneE39" fromLane="0" toLane="0" via=":gneJ42_0_0" tl="gneJ42" linkIndex="0" dir="l" state="o"/>
    <connection from="-gneE40" to="gneE43" fromLane="0" toLane="0" via=":gneJ42_1_0" tl="gneJ42" linkIndex="1" dir="r" state="o"/>
    <connection from="-gneE41" to="-gneE40" fromLane="0" toLane="0" via=":gneJ43_0_0" dir="s" state="M"/>
    <connection from="-gneE41" to="p3en" fromLane="0" toLane="0" via=":gneJ43_1_0" dir="r" state="m"/>
    <connection from="-gneE43" to="gneE40" fromLane="0" toLane="0" via=":gneJ42_2_0" tl="gneJ42" linkIndex="2" dir="l" state="o"/>
    <connection from="-gneE43" to="-gneE39" fromLane="0" toLane="0" via=":gneJ42_3_0" tl="gneJ42" linkIndex="3" dir="s" state="o"/>
    <connection from="-gneE44" to="-gneE43" fromLane="0" toLane="0" via=":gneJ46_0_0" dir="s" state="M"/>
    <connection from="-gneE44" to="p2en" fromLane="0" toLane="0" via=":gneJ46_1_0" dir="r" state="m"/>
    <connection from="-gneE47" to="-gneE46" fromLane="0" toLane="0" via=":gneJ49_1_0" dir="l" state="M"/>
    <connection from="-gneE48" to="-gneE47" fromLane="0" toLane="0" via=":gneJ50_0_0" dir="l" state="M"/>
    <connection from="-gneE54" to="-gneE53" fromLane="0" toLane="0" via=":gneJ55_0_0" dir="l" state="M"/>
    <connection from="-gneE55" to="-gneE54" fromLane="0" toLane="0" via=":gneJ56_1_0" dir="l" state="M"/>
    <connection from="-gneE62" to="gneE61" fromLane="0" toLane="0" via=":gneJ62_1_0" dir="l" state="M"/>
    <connection from="gneE38" to="des1" fromLane="0" toLane="0" via=":gneJ40_0_0" dir="s" state="M"/>
    <connection from="gneE38" to="p1en" fromLane="0" toLane="0" via=":gneJ40_1_0" dir="r" state="m"/>
    <connection from="gneE39" to="gneE43" fromLane="0" toLane="0" via=":gneJ42_4_0" tl="gneJ42" linkIndex="4" dir="s" state="o"/>
    <connection from="gneE39" to="gneE40" fromLane="0" toLane="0" via=":gneJ42_5_0" tl="gneJ42" linkIndex="5" dir="r" state="o"/>
    <connection from="gneE40" to="p3en" fromLane="0" toLane="0" via=":gneJ43_2_0" dir="l" state="M"/>
    <connection from="gneE40" to="gneE41" fromLane="0" toLane="0" via=":gneJ43_3_0" dir="s" state="M"/>
    <connection from="gneE41" to="des3" fromLane="0" toLane="0" via=":gneJ44_3_0" dir="s" state="M"/>
    <connection from="gneE43" to="p2en" fromLane="0" toLane="0" via=":gneJ46_2_0" dir="l" state="M"/>
    <connection from="gneE43" to="gneE44" fromLane="0" toLane="0" via=":gneJ46_3_0" dir="s" state="M"/>
    <connection from="gneE44" to="des2" fromLane="0" toLane="0" via=":gneJ47_3_0" dir="s" state="M"/>
    <connection from="gneE47" to="p2ex" fromLane="0" toLane="0" via=":gneJ50_1_0" dir="r" state="M"/>
    <connection from="gneE54" to="p3ex" fromLane="0" toLane="0" via=":gneJ56_0_0" dir="r" state="M"/>
    <connection from="gneE60" to="-gneE62" fromLane="0" toLane="0" via=":gneJ61_0_0" dir="l" state="M"/>
    <connection from="gneE62" to="p1ex" fromLane="0" toLane="0" via=":gneJ61_1_0" dir="r" state="M"/>
    <connection from="p1en" to="gneE62" fromLane="0" toLane="0" via=":gneJ62_0_0" dir="r" state="M"/>
    <connection from="p1ex" to="gneE39" fromLane="0" toLane="0" via=":gneJ41_1_0" dir="l" state="m"/>
    <connection from="p1ex" to="gneE38" fromLane="0" toLane="0" via=":gneJ41_2_0" dir="r" state="m"/>
    <connection from="p2en" to="gneE47" fromLane="0" toLane="0" via=":gneJ49_0_0" dir="r" state="M"/>
    <connection from="p2ex" to="des2" fromLane="0" toLane="0" via=":gneJ47_1_0" dir="l" state="m"/>
    <connection from="p2ex" to="-gneE44" fromLane="0" toLane="0" via=":gneJ47_2_0" dir="r" state="m"/>
    <connection from="p3en" to="gneE54" fromLane="0" toLane="0" via=":gneJ55_1_0" dir="r" state="M"/>
    <connection from="p3ex" to="des3" fromLane="0" toLane="0" via=":gneJ44_1_0" dir="l" state="m"/>
    <connection from="p3ex" to="-gneE41" fromLane="0" toLane="0" via=":gneJ44_2_0" dir="r" state="m"/>
    <connection from="res1" to="p1en" fromLane="0" toLane="0" via=":gneJ40_2_0" dir="l" state="M"/>
    <connection from="res1" to="-gneE38" fromLane="0" toLane="0" via=":gneJ40_3_0" dir="s" state="M"/>
    <connection from="res2" to="-gneE44" fromLane="0" toLane="0" via=":gneJ47_0_0" dir="s" state="M"/>
    <connection from="res3" to="-gneE41" fromLane="0" toLane="0" via=":gneJ44_0_0" dir="s" state="M"/>

    <connection from=":gneJ40_0" to="des1" fromLane="0" toLane="0" dir="s" state="M"/>
    <connection from=":gneJ40_1" to="p1en" fromLane="0" toLane="0" via=":gneJ40_4_0" dir="s" state="m"/>
    <connection from=":gneJ40_4" to="p1en" fromLane="0" toLane="0" dir="s" state="M"/>
    <connection from=":gneJ40_2" to="p1en" fromLane="0" toLane="0" dir="s" state="M"/>
    <connection from=":gneJ40_3" to="-gneE38" fromLane="0" toLane="0" dir="s" state="M"/>
    <connection from=":gneJ41_0" to="gneE38" fromLane="0" toLane="0" dir="s" state="M"/>
    <connection from=":gneJ41_1" to="gneE39" fromLane="0" toLane="0" dir="s" state="M"/>
    <connection from=":gneJ41_2" to="gneE38" fromLane="0" toLane="0" dir="s" state="M"/>
    <connection from=":gneJ41_3" to="gneE39" fromLane="0" toLane="0" dir="s" state="M"/>
    <connection from=":gneJ42_0" to="-gneE39" fromLane="0" toLane="0" dir="s" state="M"/>
    <connection from=":gneJ42_1" to="gneE43" fromLane="0" toLane="0" dir="s" state="M"/>
    <connection from=":gneJ42_2" to="gneE40" fromLane="0" toLane="0" dir="s" state="M"/>
    <connection from=":gneJ42_3" to="-gneE39" fromLane="0" toLane="0" dir="s" state="M"/>