<?xml version="1.0"?>
<!-- generated on 2017-01-20 00:30:08.384492 by $Id: route2trips.py 20433 2016-04-13 08:00:14Z behrisch $ -->
<trips>
    <vType id="passenger" vClass="passenger"/>
    <trip id="veh0" depart="0.00" departLane="best" from="164887582#8" to="-163508443#2" type="passenger"/>
    <trip id="veh1" depart="1.44" departLane="best" from="-191133261" to="-191131740#0" type="passenger"/>
    <trip id="veh2" depart="2.89" departLane="best" from="191132716" to="191131560" type="passenger"/>
    <trip id="veh3" depart="4.33" departLane="best" from="225209489#11" to="-164299592#5" type="passenger"/>
    <trip id="veh4" depart="5.78" departLane="best" from="-225209489#14" to="-163508443#9" type="passenger"/>
    <trip id="veh5" depart="7.22" departLane="best" from="-163508449#0" to="-191131160" type="passenger"/>
    <trip id="veh6" depart="8.66" departLane="best" from="184735653#3" to="164299590#1" type="passenger"/>
    <trip id="veh7" depart="10.11" departLane="best" from="-191131905" to="164371221#1" type="passenger"/>
    <trip id="veh8" depart="11.55" departLane="best" from="191306836" to="-163045545#0" type="passenger"/>
    <trip id="veh9" depart="12.99" departLane="best" from="191306193" to="191132106" type="passenger"/>
    <trip id="veh10" depart="14.44" departLane="best" from="-191306889" to="-165678259#1" type="passenger"/>
    <trip id="veh11" depart="15.88" departLane="best" from="67214798#1" to="-191308680" type="passenger"/>
    <trip id="veh12" depart="17.33" departLane="best" from="-164299602#1" to="-164299600#1" type="passenger"/>
    <trip id="veh13" depart="18.77" departLane="best" from="191353111#2" to="164886494#4" type="passenger"/>
    <trip id="veh14" depart="20.21" departLane="best" from="191306193" to="191132950" type="passenger"/>
    <trip id="veh15" depart="21.66" departLane="best" from="164033491#0" to="67214798#5" type="passenger"/>
    <trip id="veh16" depart="23.10" departLane="best" from="-191353123" to="164299592#2" type="passenger"/>
    <trip id="veh17" depart="24.55" departLane="best" from="191311084" to="164887582#9" type="passenger"/>
    <trip id="veh18" depart="25.99" departLane="best" from="191353114#8" to="164299604#3" type="passenger"/>
    <trip id="veh19" depart="27.43" departLane="best" from="191131740#1" to="-164033491#0" type="passenger"/>
    <trip id="veh20" depart="28.88" departLane="best" from="-164299594#3" to="-191132064" type="passenger"/>
    <trip id="veh21" depart="30.32" departLane="best" from="-164371207#2" to="-191133430" type="passenger"/>
    <trip id="veh22" depart="31.77" departLane="best" from="164887582#3" to="-191319786" type="passenger"/>
    <trip id="veh24" depart="34.65" departLane="best" from="-191133144" to="304525875#5" type="passenger"/>
    <trip id="veh25" depart="36.10" departLane="best" from="184735653#1" to="164887193#0" type="passenger"/>
    <trip id="veh26" depart="37.54" departLane="best" from="-191130679#1" to="191132950" type="passenger"/>
    <trip id="veh27" depart="38.98" departLane="best" from="-184735653#8" to="-198529420#0" type="passenger"/>
    <trip id="veh28" depart="40.43" departLane="best" from="84515004#2" to="184735653#3" type="passenger"/>
    <trip id="veh29" depart="41.87" departLane="best" from="164039758#2" to="191131746" type="passenger"/>
    <trip id="veh30" depart="43.32" departLane="best" from="191312878" to="191133841" type="passenger"/>
    <trip id="veh31" depart="44.76" departLane="best" from="-191132133" to="-163508460#0" type="passenger"/>
    <trip id="veh32" depart="46.20" departLane="best" from="-191134057#0" to="-191133199#0" type="passenger"/>
    <trip id="veh33" depart="47.65" departLane="best" from="-191131740#1" to="432587091#2" type="passenger"/>
    <trip id="veh34" depart="49.09" departLane="best" from="222850630" to="-191134153" type="passenger"/>
    <trip id="veh35" depart="50.54" departLane="best" from="191130587#1" to="-225209489#10" type="passenger"/>
    <trip id="veh36" depart="51.98" departLane="best" from="304525875#3" to="-84514785#3" type="passenger"/>
    <trip id="veh37" depart="53.42" departLane="best" from="-191133144" to="-191132399" type="passenger"/>
    <trip id="veh38" depart="54.87" departLane="best" from="164248635#0" to="-191132983" type="passenger"/>
    <trip id="veh39" depart="56.31" departLane="best" from="164299598#2" to="223790525" type="passenger"/>
    <trip id="veh40" depart="57.75" departLane="best" from="-222850632" to="-191131637" type="passenger"/>
    <trip id="veh41" depart="59.20" departLane="best" from="86813499#0" to="163508460#2" type="passenger"/>
    <trip id="veh42" depart="60.64" departLane="best" from="-164299600#4" to="-164033494#0" type="passenger"/>
    <trip id="veh43" depart="62.09" departLane="best" from="-164371221#2" to="165678261" type="passenger"/>
    <trip id="veh44" depart="63.53" departLane="best" from="191157329" to="-67209971#0" type="passenger"/>
    <trip id="veh45" depart="64.97" departLane="best" from="-164299590#0" to="-222842347" type="passenger"/>
    <trip id="veh46" depart="66.42" departLane="best" from="86813499#0" to="164033495#5" type="passenger"/>
    <trip id="veh47" depart="67.86" departLane="best" from="67214798#8" to="191353123" type="passenger"/>
    <trip id="veh48" depart="69.31" departLane="best" from="-163508437#1" to="191132673#1" type="passenger"/>
    <trip id="veh49" depart="70.75" departLane="best" from="191130835#1" to="164039758#0" type="passenger"/>
    <trip id="veh50" depart="72.19" departLane="best" from="-191133144" to="184735653#4" type="passenger"/>
    <trip id="veh51" depart="73.64" departLane="best" from="-164371222#1" to="-67214798#0" type="passenger"/>
    <trip id="veh52" depart="75.08" departLane="best" from="-67214798#10" to="67209971#8" type="passenger"/>
    <trip id="veh53" depart="76.53" departLane="best" from="222850630" to="-191133021" type="passenger"/>
    <trip id="veh54" depart="77.97" departLane="best" from="163508430" to="-191130702" type="passenger"/>
    <trip id="veh55" depart="79.41" departLane="best" from="304525875#1" to="198529420#0" type="passenger"/>
    <trip id="veh56" depart="80.86" departLane="best" from="-191133793" to="184735653#2" type="passenger"/>
    <trip id="veh57" depart="82.30" departLane="best" from="164371221#0" to="-164902631#0" type="passenger"/>
    <trip id="veh58" depart="83.74" departLane="best" from="191133660" to="164248635#1" type="passenger"/>
    <trip id="veh59" depart="85.19" departLane="best" from="191134018" to="164033495#6" type="passenger"/>
    <trip id="veh60" depart="86.63" departLane="best" from="-163045545#1" to="-191157373#2" type="passenger"/>
    <trip id="veh62" depart="89.52" departLane="best" from="222850634" to="191312058" type="passenger"/>
    <trip id="veh63" depart="90.96" departLane="best" from="-191133945" to="-164033495#6" type="passenger"/>
    <trip id="veh64" depart="92.41" departLane="best" from="222850633" to="67209971#10" type="passenger"/>
    <trip id="veh65" depart="93.85" departLane="best" from="-164299598#1" to="163508430" type="passenger"/>
    <trip id="veh66" depart="95.30" departLane="best" from="-164299592#10" to="191133495" type="passenger"/>
    <trip id="veh67" depart="96.74" departLane="best" from="191133774" to="-164371230#1" type="passenger"/>
    <trip id="veh68" depart="98.18" departLane="best" from="-84515004#0" to="164299592#10" type="passenger"/>
    <trip id="veh69" depart="99.63" departLane="best" from="-191133144" to="198529420#1" type="passenger"/>
    <trip id="veh70" depart="101.07" departLane="best" from="-225209489#15" to="-191131542" type="passenger"/>
    <trip id="veh71" depart="102.51" departLane="best" from="164033494#2" to="191132950" type="passenger"/>
    <trip id="veh72" depart="103.96" departLane="best" from="-191131317" to="-191134124" type="passenger"/>
    <trip id="veh73" depart="105.40" departLane="best" from="86813499#0" to="191130676" type="passenger"/>
    <trip id="veh74" depart="106.85" departLane="best" from="-304525875#3" to="164033491#0" type="passenger"/>
    <trip id="veh75" depart="108.29" departLane="best" from="-164886494#0" to="-191131741" type="passenger"/>
    <trip id="veh76" depart="109.73" departLane="best" from="-191306889" to="164371220#1" type="passenger"/>
    <trip id="veh77" depart="111.18" departLane="best" from="-191132231" to="-191131673" type="passenger"/>
    <trip id="veh78" depart="112.62" departLane="best" from="-164299592#2" to="166775909#2" type="passenger"/>
    <trip id="veh79" depart="114.07" departLane="best" from="-191132133" to="225209489#0" type="passenger"/>
    <trip id="veh80" depart="115.51" departLane="best" from="191353114#4" to="-164248635#0" type="passenger"/>
    <trip id="veh81" depart="116.95" departLane="best" from="-191132421#1" to="191131247" type="passenger"/>
    <trip id="veh82" depart="118.40" departLane="best" from="-191131839" to="-164371235#0" type="passenger"/>
    <trip id="veh83" depart="119.84" departLane="best" from="67209971#11" to="164299600#5" type="passenger"/>
    <trip id="veh84" depart="121.29" departLane="best" from="-84514785#2" to="191134008" type="passenger"/>
    <trip id="veh85" depart="122.73" departLane="best" from="191306193" to="-191130829#0" type="passenger"/>
    <trip id="veh86" depart="124.17" departLane="best" from="-164299604#3" to="-67209971#8" type="passenger"/>
    <trip id="veh87" depart="125.62" departLane="best" from="-225209489#2" to="-84515004#16" type="passenger"/>
    <trip id="veh88" depart="127.06" departLane="best" from="191132399" to="191131317" type="passenger"/>
    <trip id="veh89" depart="128.50" departLane="best" from="84515004#14" to="-164299600#3" type="passenger"/>
    <trip id="veh90" depart="129.95" departLane="best" from="-222850635#0" to="-191309318" type="passenger"/>
    <trip id="veh91" depart="131.39" departLane="best" from="191353114#8" to="-191132421#0" type="passenger"/>
    <trip id="veh92" depart="132.84" departLane="best" from="-225209489#14" to="-191133495" type="passenger"/>
    <trip id="veh93" depart="134.28" departLane="best" from="-191132717" to="264120321#5" type="passenger"/>
    <trip id="veh94" depart="135.72" departLane="best" from="-67209971#1" to="191353123" type="passenger"/>
    <trip id="veh95" depart="137.17" departLane="best" from="164039751#1" to="-164033494#4" type="passenger"/>
    <trip id="veh97" depart="140.06" departLane="best" from="67214798#5" to="264120322" type="passenger"/>
    <trip id="veh98" depart="141.50" departLane="best" from="191353111#3" to="-191130587#0" type="passenger"/>
    <trip id="veh99" depart="142.94" departLane="best" from="-84515004#2" to="-191131606" type="passenger"/>
    <trip id="veh100" depart="144.39" departLane="best" from="-222850633" to="-164033495#6" type="passenger"/>
    <trip id="veh101" depart="145.83" departLane="best" from="-191353123" to="84515004#10" type="passenger"/>
    <trip id="veh102" depart="147.27" departLane="best" from="-191133144" to="191134000" type="passenger"/>
    <trip id="veh103" depart="148.72" departLane="best" from="-67214798#12" to="-67209971#0" type="passenger"/>
    <trip id="veh104" depart="150.16" departLane="best" from="67214798#1" to="84515004#5" type="passenger"/>
    <trip id="veh105" depart="151.61" departLane="best" from="164039758#0" to="191132657" type="passenger"/>
    <trip id="veh106" depart="153.05" departLane="best" from="-184735653#10" to="-191133945" type="passenger"/>
    <trip id="veh107" depart="154.49" departLane="best" from="67214798#5" to="164371207#0" type="passenger"/>
    <trip id="veh108" depart="155.94" departLane="best" from="164033494#5" to="191133261" type="passenger"/>
    <trip id="veh109" depart="157.38" departLane="best" from="-164039758#1" to="164371209" type="passenger"/>
    <trip id="veh110" depart="158.83" departLane="best" from="163508434#1" to="191353114#2" type="passenger"/>
    <trip id="veh111" depart="160.27" departLane="best" from="-184735653#10" to="67214798#1" type="passenger"/>
    <trip id="veh112" depart="161.71" departLane="best" from="-164299594#3" to="-191130769" type="passenger"/>
    <trip id="veh113" depart="163.16" departLane="best" from="164299604#2" to="191131368" type="passenger"/>
    <trip id="veh114" depart="164.60" departLane="best" from="-191132331" to="-164371221#0" type="passenger"/>
    <trip id="veh115" depart="166.05" departLane="best" from="225209489#1" to="-191132389" type="passenger"/>
    <trip id="veh116" depart="167.49" departLane="best" from="-225209489#11" to="164371209" type="passenger"/>
    <trip id="veh117" depart="168.93" departLane="best" from="163508460#1" to="304525875#3" type="passenger"/>
    <trip id="veh118" depart="170.38" departLane="best" from="-191131560" to="191132483" type="passenger"/>
    <trip id="veh119" depart="171.82" departLane="best" from="-191132421#1" to="-225209489#11" type="passenger"/>
    <trip id="veh120" depart="173.26" departLane="best" from="191130769" to="-191133980" type="passenger"/>
    <trip id="veh121" depart="174.71" departLane="best" from="-191134057#1" to="191133261" type="passenger"/>
    <trip id="veh122" depart="176.15" departLane="best" from="-164299592#3" to="-84514785#2" type="passenger"/>
    <trip id="veh123" depart="177.60" departLane="best" from="86813499#0" to="84515004#6" type="passenger"/>
    <trip id="veh124" depart="179.04" departLane="best" from="-164299592#4" to="-191131560" type="passenger"/>
    <trip id="veh125" depart="180.48" departLane="best" from="-191133144" to="304525875#1" type="passenger"/>
    <trip id="veh126" depart="181.93" departLane="best" from="222850637" to="222844241" type="passenger"/>
    <trip id="veh128" depart="184.82" departLane="best" from="191311188" to="191132180" type="passenger"/>
    <trip id="veh129" depart="186.26" departLane="best" from="164371221#1" to="84515004#12" type="passenger"/>
    <trip id="veh130" depart="187.70" departLane="best" from="184735653#9" to="-163045545#0" type="passenger"/>
    <trip id="veh131" depart="189.15" departLane="best" from="191309318" to="-191133980" type="passenger"/>
    <trip id="veh132" depart="190.59" departLane="best" from="191130670#1" to="413952062#1" type="passenger"/>
    <trip id="veh133" depart="192.03" departLane="best" from="-164887582#4" to="-164371218#1" type="passenger"/>
    <trip id="veh134" depart="193.48" departLane="best" from="-164371220#0" to="164299592#3" type="passenger"/>
    <trip id="veh135" depart="194.92" departLane="best" from="-191133219" to="164886816" type="passenger"/>
    <trip id="veh136" depart="196.37" departLane="best" from="191132114" to="-191131274" type="passenger"/>
    <trip id="veh137" depart="197.81" departLane="best" from="164887582#10" to="-191133021" type="passenger"/>
    <trip id="veh138" depart="199.25" departLane="best" from="-84515004#7" to="225209489#0" type="passenger"/>
    <trip id="veh139" depart="200.70" departLane="best" from="191353110" to="-164299594#3" type="passenger"/>
    <trip id="veh140" depart="202.14" departLane="best" from="-225209489#2" to="-191133412" type="passenger"/>
    <trip id="veh141" depart="203.59" departLane="best" from="-163045545#1" to="191133793" type="passenger"/>
    <trip id="veh142" depart="205.03" departLane="best" from="164887582#5" to="-191132937" type="passenger"/>
    <trip id="veh143" depart="206.47" departLane="best" from="191132937" to="164299592#2" type="passenger"/>
    <trip id="veh144" depart="207.92" departLane="best" from="-225209489#7" to="-163508432#0" type="passenger"/>
    <trip id="veh145" depart="209.36" departLane="best" from="-164299592#7" to="222850632" type="passenger"/>
    <trip id="veh146" depart="210.81" departLane="best" from="264120321#1" to="164299590#1" type="passenger"/>
    <trip id="veh147" depart="212.25" departLane="best" from="191311188" to="164371207#4" type="passenger"/>
    <trip id="veh148" depart="213.69" departLane="best" from="-166775909#1" to="-164371230#0" type="passenger"/>
    <trip id="veh149" depart="215.14" departLane="best" from="-191133952#0" to="223790525" type="passenger"/>
    <trip id="veh150" depart="216.58" departLane="best" from="191157343#2" to="191353123" type="passenger"/>
    <trip id="veh151" depart="218.02" departLane="best" from="225209489#5" to="-191131542" type="passenger"/>
    <trip id="veh152" depart="219.47" departLane="best" from="-191132716" to="-164299602#2" type="passenger"/>
    <trip id="veh153" depart="220.91" departLane="best" from="191134018" to="222850632" type="passenger"/>
    <trip id="veh155" depart="223.80" departLane="best" from="191353121" to="67214798#9" type="passenger"/>
    <trip id="veh156" depart="225.24" departLane="best" from="191306864#1" to="222850632" type="passenger"/>
    <trip id="veh157" depart="226.69" departLane="best" from="-163508443#8" to="191133130" type="passenger"/>
    <trip id="veh159" depart="229.58" departLane="best" from="191306120" to="191353123" type="passenger"/>
    <trip id="veh160" depart="231.02" departLane="best" from="191306864#1" to="-191133191" type="passenger"/>
    <trip id="veh161" depart="232.46" departLane="best" from="191134124" to="-164371207#0" type="passenger"/>
    <trip id="veh162" depart="233.91" departLane="best" from="222842347" to="191353119" type="passenger"/>
    <trip id="veh164" depart="236.80" departLane="best" from="-67214798#19" to="-191134018" type="passenger"/>
    <trip id="veh165" depart="238.24" departLane="best" from="191157343#1" to="-191131839" type="passenger"/>
    <trip id="veh166" depart="239.68" departLane="best" from="-163508443#7" to="-191130829#3" type="passenger"/>
    <trip id="veh167" depart="241.13" departLane="best" from="-191305630" to="191353134#0" type="passenger"/>
    <trip id="veh168" depart="242.57" departLane="best" from="67214798#3" to="-191133495" type="passenger"/>
    <trip id="veh169" depart="244.01" departLane="best" from="164902628#0" to="-225209489#15" type="passenger"/>
    <trip id="veh170" depart="245.46" departLane="best" from="84515004#10" to="164039751#6" type="passenger"/>
    <trip id="veh171" depart="246.90" departLane="best" from="67209971#6" to="-164371218#1" type="passenger"/>
    <trip id="veh172" depart="248.35" departLane="best" from="67214798#17" to="-191133071" type="passenger"/>
    <trip id="veh173" depart="249.79" departLane="best" from="-164371220#1" to="-67214798#0" type="passenger"/>
    <trip id="veh174" depart="251.23" departLane="best" from="191132389" to="-191134151" type="passenger"/>
    <trip id="veh175" depart="252.68" departLane="best" from="164371220#1" to="163508463#3" type="passenger"/>
    <trip id="veh176" depart="254.12" departLane="best" from="-191353152" to="164299604#2" type="passenger"/>
    <trip id="veh177" depart="255.57" departLane="best" from="-191132950" to="191132329" type="passenger"/>
    <trip id="veh178" depart="257.01" departLane="best" from="-163045545#1" to="264120321#8" type="passenger"/>
    <trip id="veh179" depart="258.45" departLane="best" from="164033494#1" to="191132673#0" type="passenger"/>
    <trip id="veh180" depart="259.90" departLane="best" from="191132983" to="191131274" type="passenger"/>
    <trip id="veh181" depart="261.34" departLane="best" from="-191312058" to="-164248635#0" type="passenger"/>
    <trip id="veh182" depart="262.78" departLane="best" from="191130676" to="-191306193" type="passenger"/>
    <trip id="veh183" depart="264.23" departLane="best" from="-191134033" to="191353111#8" type="passenger"/>
    <trip id="veh184" depart="265.67" departLane="best" from="191132133" to="-191134000" type="passenger"/>
    <trip id="veh185" depart="267.12" departLane="best" from="-191133952#1" to="-304525875#1" type="passenger"/>
    <trip id="veh186" depart="268.56" departLane="best" from="-222850635#0" to="-191133940" type="passenger"/>
    <trip id="veh187" depart="270.00" departLane="best" from="-164886816" to="-67209971#0" type="passenger"/>
    <trip id="veh188" depart="271.45" departLane="best" from="67209971#7" to="191131606" type="passenger"/>
    <trip id="veh189" depart="272.89" departLane="best" from="239081100" to="164887582#6" type="passenger"/>
    <trip id="veh190" depart="274.34" departLane="best" from="-191133808" to="164299592#10" type="passenger"/>
    <trip id="veh191" depart="275.78" departLane="best" from="-239081100" to="164371207#1" type="passenger"/>
    <trip id="veh192" depart="277.22" departLane="best" from="191130587#0" to="-84515004#13" type="passenger"/>
    <trip id="veh193" depart="278.67" departLane="best" from="-61843390#1" to="-191131560" type="passenger"/>
    <trip id="veh194" depart="280.11" departLane="best" from="191157343#2" to="-191130588#0" type="passenger"/>
    <trip id="veh195" depart="281.56" departLane="best" from="-164299598#0" to="164033490#0" type="passenger"/>
    <trip id="veh196" depart="283.00" departLane="best" from="164887582#1" to="-191307458" type="passenger"/>
    <trip id="veh197" depart="284.44" departLane="best" from="191309777" to="191133261" type="passenger"/>
    <trip id="veh198" depart="285.89" departLane="best" from="191130769" to="-191131740#1" type="passenger"/>
    <trip id="veh199" depart="287.33" departLane="best" from="-191131303" to="-163508443#2" type="passenger"/>
    <trip id="veh200" depart="288.77" departLane="best" from="-191132657" to="-84515004#8" type="passenger"/>
    <trip id="veh201" depart="290.22" departLane="best" from="191353111#4" to="-164248635#2" type="passenger"/>
    <trip id="veh202" depart="291.66" departLane="best" from="-223790525" to="166775909#2" type="passenger"/>
    <trip id="veh203" depart="293.11" departLane="best" from="162667841" to="-191132331" type="passenger"/>
    <trip id="veh204" depart="294.55" departLane="best" from="191130587#1" to="-163045545#0" type="passenger"/>
    <trip id="veh205" depart="295.99" departLane="best" from="191133268" to="191133793" type="passenger"/>
    <trip id="veh206" depart="297.44" departLane="best" from="-164371218#1" to="-67209971#11" type="passenger"/>
    <trip id="veh207" depart="298.88" departLane="best" from="-191130778" to="67209976#3" type="passenger"/>
    <trip id="veh208" depart="300.33" departLane="best" from="163508443#7" to="-164033494#3" type="passenger"/>
    <trip id="veh209" depart="301.77" departLane="best" from="-191132716" to="191353114#0" type="passenger"/>
    <trip id="veh210" depart="303.21" departLane="best" from="-67214798#14" to="191306120" type="passenger"/>
    <trip id="veh211" depart="304.66" departLane="best" from="191130702" to="84515004#13" type="passenger"/>
    <trip id="veh212" depart="306.10" departLane="best" from="164299604#3" to="67209971#3" type="passenger"/>
    <trip id="veh213" depart="307.54" departLane="best" from="225209489#10" to="164887582#2" type="passenger"/>
    <trip id="veh214" depart="308.99" departLane="best" from="191132132" to="163508443#9" type="passenger"/>
    <trip id="veh215" depart="310.43" departLane="best" from="191311084" to="164299592#10" type="passenger"/>
    <trip id="veh216" depart="311.88" departLane="best" from="225209489#3" to="191133181" type="passenger"/>
    <trip id="veh217" depart="313.32" departLane="best" from="-84514785#4" to="-191132717" type="passenger"/>
    <trip id="veh218" depart="314.76" departLane="best" from="-191132673#2" to="184735653#10" type="passenger"/>
    <trip id="veh219" depart="316.21" departLane="best" from="191133774" to="164033494#2" type="passenger"/>
    <trip id="veh220" depart="317.65" departLane="best" from="164371235#5" to="-191133386" type="passenger"/>
    <trip id="veh221" depart="319.10" departLane="best" from="-164299594#0" to="-191133717#0" type="passenger"/>
    <trip id="veh222" depart="320.54" departLane="best" from="-191133204" to="-191157343#2" type="passenger"/>
    <trip id="veh223" depart="321.98" departLane="best" from="-191132291#0" to="191131905" type="passenger"/>
    <trip id="veh224" depart="323.43" departLane="best" from="191131746" to="-164039751#6" type="passenger"/>
    <trip id="veh225" depart="324.87" departLane="best" from="-222850638" to="164298200#2" type="passenger"/>
    <trip id="veh226" depart="326.32" departLane="best" from="-224708105" to="-191131368" type="passenger"/>
    <trip id="veh227" depart="327.76" departLane="best" from="-225209489#12" to="224708105" type="passenger"/>
    <trip id="veh228" depart="329.20" departLane="best" from="164299598#1" to="191131925" type="passenger"/>
    <trip id="veh229" depart="330.65" departLane="best" from="191353114#12" to="191133660" type="passenger"/>
    <trip id="veh230" depart="332.09" departLane="best" from="-191353123" to="-163045545#0" type="passenger"/>
    <trip id="veh231" depart="333.53" departLane="best" from="-191308604" to="191133267" type="passenger"/>
    <trip id="veh232" depart="334.98" departLane="best" from="191353114#0" to="67209971#8" type="passenger"/>
    <trip id="veh233" depart="336.42" departLane="best" from="-225209489#10" to="191133219" type="passenger"/>
    <trip id="veh234" depart="337.87" departLane="best" from="164033495#3" to="164886494#3" type="passenger"/>
    <trip id="veh235" depart="339.31" departLane="best" from="-191131905" to="-191131637" type="passenger"/>
    <trip id="veh236" depart="340.75" departLane="best" from="-304525875#1" to="-163508443#8" type="passenger"/>
    <trip id="veh237" depart="342.20" departLane="best" from="-191306864#0" to="191131673" type="passenger"/>
    <trip id="veh238" depart="343.64" departLane="best" from="-222850638" to="-184735653#9" type="passenger"/>
    <trip id="veh239" depart="345.09" departLane="best" from="-67214798#9" to="-164371230#0" type="passenger"/>
    <trip id="veh240" depart="346.53" departLane="best" from="164371235#0" to="-163508443#6" type="passenger"/>
    <trip id="veh241" depart="347.97" departLane="best" from="-222844241" to="164299594#4" type="passenger"/>
    <trip id="veh242" depart="349.42" departLane="best" from="-163508449#1" to="184735653#7" type="passenger"/>
    <trip id="veh243" depart="350.86" departLane="best" from="-164887582#6" to="-84515004#1" type="passenger"/>
    <trip id="veh244" depart="352.30" departLane="best" from="-164039751#0" to="-198529420#0" type="passenger"/>
    <trip id="veh245" depart="353.75" departLane="best" from="-191131741" to="-191306120" type="passenger"/>
    <trip id="veh246" depart="355.19" departLane="best" from="191133635" to="-198529420#0" type="passenger"/>
    <trip id="veh247" depart="356.64" departLane="best" from="191133286" to="191312058" type="passenger"/>
    <trip id="veh248" depart="358.08" departLane="best" from="-191132937" to="-164299590#1" type="passenger"/>
    <trip id="veh249" depart="359.52" departLane="best" from="-163508443#1" to="164248635#1" type="passenger"/>
    <trip id="veh250" depart="360.97" departLane="best" from="86813499#1" to="-191311068" type="passenger"/>
    <trip id="veh251" depart="362.41" departLane="best" from="184735653#3" to="191133952#1" type="passenger"/>
    <trip id="veh252" depart="363.86" departLane="best" from="184735653#6" to="191133268" type="passenger"/>
    <trip id="veh253" depart="365.30" departLane="best" from="67209976#3" to="-191131160" type="passenger"/>
    <trip id="veh254" depart="366.74" departLane="best" from="-163508443#2" to="-164902628#0" type="passenger"/>
    <trip id="veh255" depart="368.19" departLane="best" from="-164886816" to="191131247" type="passenger"/>
    <trip id="veh256" depart="369.63" departLane="best" from="164248635#3" to="-191131637" type="passenger"/>
    <trip id="veh257" depart="371.08" departLane="best" from="-191130670#0" to="164886816" type="passenger"/>
    <trip id="veh258" depart="372.52" departLane="best" from="191133219" to="-164371218#0" type="passenger"/>
    <trip id="veh259" depart="373.96" departLane="best" from="191309777" to="67214798#14" type="passenger"/>
    <trip id="veh260" depart="375.41" departLane="best" from="-164371220#1" to="-163508443#3" type="passenger"/>
    <trip id="veh261" depart="376.85" departLane="best" from="-191134000" to="191131606" type="passenger"/>
    <trip id="veh262" depart="378.29" departLane="best" from="67214798#10" to="-225209489#12" type="passenger"/>
    <trip id="veh263" depart="379.74" departLane="best" from="191132083" to="-164298200#0" type="passenger"/>
    <trip id="veh264" depart="381.18" departLane="best" from="191131311" to="165678261" type="passenger"/>
    <trip id="veh265" depart="382.63" departLane="best" from="-164371207#4" to="191133793" type="passenger"/>
    <trip id="veh266" depart="384.07" departLane="best" from="-164886494#1" to="84515004#0" type="passenger"/>
    <trip id="veh267" depart="385.51" departLane="best" from="191134031" to="-191309889" type="passenger"/>
    <trip id="veh268" depart="386.96" departLane="best" from="-225209489#8" to="-191353113" type="passenger"/>
    <trip id="veh269" depart="388.40" departLane="best" from="163508437#1" to="-191309777" type="passenger"/>
    <trip id="veh270" depart="389.85" departLane="best" from="191353111#4" to="191308727" type="passenger"/>
    <trip id="veh271" depart="391.29" departLane="best" from="-164371218#0" to="67214798#1" type="passenger"/>
    <trip id="veh272" depart="392.73" departLane="best" from="164887582#3" to="191311941" type="passenger"/>
    <trip id="veh273" depart="394.18" departLane="best" from="191131768" to="-67214798#0" type="passenger"/>
    <trip id="veh274" depart="395.62" departLane="best" from="191132673#1" to="67214798#15" type="passenger"/>
    <trip id="veh275" depart="397.06" departLane="best" from="-191133191" to="191306836" type="passenger"/>
    <trip id="veh276" depart="398.51" departLane="best" from="164033494#0" to="163045545#1" type="passenger"/>
    <trip id="veh277" depart="399.95" departLane="best" from="-304525875#0" to="191132950" type="passenger"/>
    <trip id="veh278" depart="401.40" departLane="best" from="-191133144" to="191353114#12" type="passenger"/>